*Heading
** Job name: Job-1 Model name: Model-1
** Generated by: Abaqus/CAE 2021
*Preprint, echo=NO, model=NO, history=NO, contact=NO
**
** PARTS
**
*Part, name=Part-3
*Node
      1,   0.74358362, -0.0978946462,           0.
      2,   0.74358362, -0.0978946462, -0.100000001
      3,   0.74358362, -0.0978946462, -0.200000003
      4,   0.74358362, -0.0978946462, -0.300000012
      5,   0.74358362, -0.0978946462, -0.400000006
      6,   0.74358362, -0.0978946462,         -0.5
      7,   0.74358362, -0.0978946462, -0.600000024
      8,   0.74358362, -0.0978946462, -0.699999988
      9,   0.74358362, -0.0978946462, -0.800000012
     10,   0.74358362, -0.0978946462, -0.899999976
     11,   0.74358362, -0.0978946462,          -1.
     12,   0.74358362, -0.0978946462,  -1.10000002
     13,   0.74358362, -0.0978946462,  -1.20000005
     14,   0.74358362, -0.0978946462,  -1.29999995
     15,  0.724444389, -0.194114283,  -1.29999995
     16,  0.724444389, -0.194114283,  -1.20000005
     17,  0.692909658, -0.287012577,  -1.20000005
     18,  0.692909658, -0.287012577,  -1.10000002
     19,  0.649519026,       -0.375,  -1.10000002
     20,  0.649519026,       -0.375,          -1.
** ... 652 like lines cut
*Element, type=T3D2
1, 1, 2
2, 2, 3
3, 3, 4
4, 4, 5
5, 5, 6
6, 6, 7
7, 7, 8
8, 8, 9
 9,  9, 10
10, 10, 11
11, 11, 12
12, 12, 13
13, 13, 14
14, 15, 14
15, 16, 15
16, 17, 16
17, 18, 17
18, 19, 18
19, 20, 19
20, 21, 20
** ... 1228 like lines cut
*Element, type=B31
40, 41, 40
80, 81, 80
120, 121, 120
145, 145,   1
218,  40, 180
219, 181,  41
292,  80, 216
293, 217,  81
366, 120, 252
367, 253, 121
411,   1, 274
412, 275, 145
484, 180, 312
485, 313, 181
559, 216, 352
560, 353, 217
634, 252, 392
635, 393, 253
681, 417, 275
738, 312, 440
** ... 28 like lines cut
*Nset, nset=Set-1, generate
   1,  672,    1
*Elset, elset=Set-1
    1,    2,    3,    4,    5,    6,    7,    8,    9,   10,   11,   12,   13,   14,   15,   16
   17,   18,   19,   20,   21,   22,   23,   24,   25,   26,   27,   28,   29,   30,   31,   32
   33,   34,   35,   36,   37,   38,   39,   41,   42,   43,   44,   45,   46,   47,   48,   49
   50,   51,   52,   53,   54,   55,   56,   57,   58,   59,   60,   61,   62,   63,   64,   65
   66,   67,   68,   69,   70,   71,   72,   73,   74,   75,   76,   77,   78,   79,   81,   82
   83,   84,   85,   86,   87,   88,   89,   90,   91,   92,   93,   94,   95,   96,   97,   98
   99,  100,  101,  102,  103,  104,  105,  106,  107,  108,  109,  110,  111,  112,  113,  114
  115,  116,  117,  118,  119,  121,  122,  123,  124,  125,  126,  127,  128,  129,  130,  131
  132,  133,  134,  135,  136,  137,  138,  139,  140,  141,  142,  143,  144,  146,  147,  148
  149,  150,  151,  152,  153,  154,  155,  156,  157,  158,  159,  160,  161,  162,  163,  164
  165,  166,  167,  168,  169,  170,  171,  172,  173,  174,  175,  176,  177,  178,  179,  180
  181,  182,  183,  184,  185,  186,  187,  188,  189,  190,  191,  192,  193,  194,  195,  196
  197,  198,  199,  200,  201,  202,  203,  204,  205,  206,  207,  208,  209,  210,  211,  212
  213,  214,  215,  216,  217,  220,  221,  222,  223,  224,  225,  226,  227,  228,  229,  230
  231,  232,  233,  234,  235,  236,  237,  238,  239,  240,  241,  242,  243,  244,  245,  246
  247,  248,  249,  250,  251,  252,  253,  254,  255,  256,  257,  258,  259,  260,  261,  262
  263,  264,  265,  266,  267,  268,  269,  270,  271,  272,  273,  274,  275,  276,  277,  278
  279,  280,  281,  282,  283,  284,  285,  286,  287,  288,  289,  290,  291,  294,  295,  296
  297,  298,  299,  300,  301,  302,  303,  304,  305,  306,  307,  308,  309,  310,  311,  312
  313,  314,  315,  316,  317,  318,  319,  320,  321,  322,  323,  324,  325,  326,  327,  328
** ... 58 like lines cut
*Nset, nset=Set-2
   1,  40,  41,  80,  81, 120, 121, 145, 180, 181, 216, 217, 252, 253, 274, 275
 312, 313, 352, 353, 392, 393, 417, 440, 441, 472, 473, 504, 505, 523, 540, 541
 564, 565, 588, 589, 601, 612, 613, 628, 629, 644, 649, 654, 655, 662, 663, 670
*Elset, elset=Set-2
   40,   80,  120,  145,  218,  219,  292,  293,  366,  367,  411,  412,  484,  485,  559,  560
  634,  635,  681,  738,  739,  808,  809,  878,  879,  920,  959,  960, 1013, 1014, 1067, 1068
 1096, 1123, 1124, 1161, 1162, 1199, 1200, 1216, 1231, 1232, 1253, 1254, 1275, 1282, 1287, 1292
** Section: Section-1
*Solid Section, elset=Set-1, material=net
4.7124e-05,
** Section: Section-2  Profile: Profile-1
*Beam Section, elset=Set-2, material=Floater, temperature=GRADIENTS, section=CIRC
0.015
0.,0.,-1.
*End Part
**  
**
** ASSEMBLY
**
*Assembly, name=Assembly
**  
*Instance, name=Part-3-1, part=Part-3
*End Instance
**  
*End Assembly
** 
** MATERIALS
** 
*Material, name=Floater
*Density
 179.7,
*Elastic
 3.42e+06, 0.3
*Material, name=net
*Density
1120.,
*Elastic
 3.5e+08, 0.3
