
This summary file was generated by TurbSim on 28-Apr-2021 at 13:20:05.


Runtime Options:

     13428  Random seed #1
    RANLUX  Type of random number generator
         F  Output binary HH turbulence parameters?
         F  Output formatted turbulence parameters?
         F  Output AeroDyn HH files?
         T  Output AeroDyn FF files?
         F  Output BLADED FF files?
         T  Output tower data?
         F  Output formatted FF files?
         F  Output coherent turbulence time step file?
         T  Clockwise rotation when looking downwind?
 0 -  NONE  IEC turbulence models scaled to exact specified standard deviation


Turbine/Model Specifications:

        31  Vertical grid-point matrix dimension
        31  Horizontal grid-point matrix dimension
     0.050  Time step [seconds]
   360.000  Analysis time [seconds]
   310.000  Usable output time [seconds]
    90.000  Hub height [m]
   145.000  Grid height [m]
   145.000  Grid width [m]
     0.000  Vertical flow angle [degrees]
     0.000  Horizontal flow angle [degrees]


Meteorological Boundary Conditions:

    IECKAI  IEC Kaimal spectral model
         1  IEC standard: IEC 61400-1 Ed. 3: 2005
         B  IEC turbulence characteristic
       NTM  IEC Normal Turbulence Model
       N/A  IEC Extreme Turbulence Model (ETM) "c" parameter [m/s]
       PL   Wind profile type
    90.000  Reference height [m]
    12.000  Reference wind speed [m/s]
       N/A  Jet height [m]
     0.200  Power law exponent
     0.030  Surface roughness length [m]


Non-IEC Meteorological Boundary Conditions:

       N/A  Site latitude [degrees]
       N/A  Gradient Richardson number
       N/A  Friction or shear velocity [m/s]
       N/A  Mixing layer depth [m]
       N/A  Mean hub u'w' Reynolds stress
       N/A  Mean hub u'v' Reynolds stress
       N/A  Mean hub v'w' Reynolds stress


Spatial Coherence Models:

       IEC  u-component coherence model
      NONE  v-component coherence model
      NONE  w-component coherence model
(   12.000, 0.353E-03)  u-component coherence parameters
                   N/A  v-component coherence parameters
                   N/A  w-component coherence parameters
       N/A  Coherence exponent


You have requested that the following file(s) be generated:

   90m_12mps_twr.bts (AeroDyn/TurbSim full-field wind file)


Turbulence Simulation Scaling Parameter Summary:

   Turbulence model used                            =  IEC Kaimal
   Turbulence characteristic                        =  B
   IEC turbulence type                              =  Normal Turbulence Model
   IEC standard                                     =  IEC 61400-1 Ed. 3: 2005
   Mean wind speed at hub height                    =   12.000 m/s
   Expected value of turbulence intensity at 15 m/s =   14.000%
   Characteristic value of standard deviation       =    2.044 m/s
   Turbulence scale                                 =   42.000 m
   u-component integral scale                       =  340.200 m
   Coherency scale                                  =  340.200 m
   Characteristic value of hub turbulence intensity =   17.033%
   Gradient Richardson number                       =    0.000

   Wind profile type                                =  Power law
   Power law exponent                               =    0.200
   Mean shear across rotor disk                     =    0.033 (m/s)/m
   Assumed rotor diameter                           =  145.000 m
   Surface roughness length                         =    0.030 m

   Nyquist frequency of turbulent wind field        =   10.000 Hz

   Number of time steps in the FFT                  =     7200
   Number of time steps output                      =     6442
   Number of points simulated                       =      964


Mean Flow Angles:

   Vertical   =   0.0 degrees
   Horizontal =   0.0 degrees

Mean Wind Speed Profile:

   Height    Wind Speed   Horizontal Angle  Vertical Angle  U-comp (X)   V-comp (Y)   W-comp (Z)
     (m)        (m/s)         (degrees)       (degrees)       (m/s)        (m/s)        (m/s)   
   ------    ----------   ----------------  --------------  ----------   ----------   ----------
    162.5       13.51            0.00            0.00         13.51         0.00         0.00
    157.7       13.42            0.00            0.00         13.42         0.00         0.00
    152.8       13.34            0.00            0.00         13.34         0.00         0.00
    148.0       13.26            0.00            0.00         13.26         0.00         0.00
    143.2       13.17            0.00            0.00         13.17         0.00         0.00
    138.3       13.08            0.00            0.00         13.08         0.00         0.00
    133.5       12.98            0.00            0.00         12.98         0.00         0.00
    128.7       12.89            0.00            0.00         12.89         0.00         0.00
    123.8       12.79            0.00            0.00         12.79         0.00         0.00
    119.0       12.69            0.00            0.00         12.69         0.00         0.00
    114.2       12.58            0.00            0.00         12.58         0.00         0.00
    109.3       12.48            0.00            0.00         12.48         0.00         0.00
    104.5       12.36            0.00            0.00         12.36         0.00         0.00
     99.7       12.25            0.00            0.00         12.25         0.00         0.00
     94.8       12.13            0.00            0.00         12.13         0.00         0.00
     90.0       12.00            0.00            0.00         12.00         0.00         0.00
     85.2       11.87            0.00            0.00         11.87         0.00         0.00
     80.3       11.73            0.00            0.00         11.73         0.00         0.00
     75.5       11.59            0.00            0.00         11.59         0.00         0.00
     70.7       11.43            0.00            0.00         11.43         0.00         0.00
     65.8       11.27            0.00            0.00         11.27         0.00         0.00
     61.0       11.10            0.00            0.00         11.10         0.00         0.00
     56.2       10.92            0.00            0.00         10.92         0.00         0.00
     51.3       10.73            0.00            0.00         10.73         0.00         0.00
     46.5       10.52            0.00            0.00         10.52         0.00         0.00
     41.7       10.29            0.00            0.00         10.29         0.00         0.00
     36.8       10.04            0.00            0.00         10.04         0.00         0.00
     32.0        9.76            0.00            0.00          9.76         0.00         0.00
     27.2        9.44            0.00            0.00          9.44         0.00         0.00
     22.3        9.08            0.00            0.00          9.08         0.00         0.00
     17.5        8.65            0.00            0.00          8.65         0.00         0.00
     12.7        8.11            0.00            0.00          8.11         0.00         0.00
      7.8        7.36            0.00            0.00          7.36         0.00         0.00
      3.0        6.08            0.00            0.00          6.08         0.00         0.00


Harvested Random Seeds after Generation of the Random Numbers:

     96737400 K 1
            0 K 2


Hub-Height Simulated Turbulence Statistical Summary:

   Type of Wind        Min (m/s)   Mean (m/s)    Max (m/s)  Sigma (m/s)       TI (%)
   ----------------    ---------   ----------    ---------  -----------       ------
   Longitudinal (u)         7.69        12.00        17.32        1.601       13.344
   Lateral (v)             -5.12         0.00         4.47        1.581       13.178
   Vertical (w)            -4.39        -0.00         3.17        0.996        8.302
   U component              7.69        12.00        17.32        1.601       13.344
   V component             -5.12         0.00         4.47        1.581       13.178
   W component             -4.39        -0.00         3.17        0.996        8.302
   Horizontal (U&V)         7.75        12.10        17.32        1.596       13.189
   Total                    7.84        12.15        17.32        1.598       13.156

                       Min Reynolds     Mean Reynolds    Max Reynolds    Correlation
   Product             Stress (m/s)^2   Stress (m/s)^2   Stress (m/s)^2  Coefficient
   ----------------    --------------   --------------   --------------  -----------
   u'w'                    -15.115            -0.289             5.367        -0.181
   u'v'                    -13.325            -0.549            12.277        -0.217
   v'w'                     -8.101             0.012            13.948         0.007


   Friction Velocity (Ustar)  =      0.537 m/s
   Maximum Instantaneous TKE  =     19.911 (m/s)^2
   Maximum Instantaneous CTKE =     11.401 (m/s)^2


Grid Point Variance Summary:

   Y-coord  -72.50  -67.67  -62.83  -58.00  -53.17  -48.33  -43.50  -38.67  -33.83  -29.00  -24.17  -19.33  -14.50   -9.67   -4.83    0.00    4.83    9.67   14.50   19.33   24.17   29.00   33.83   38.67   43.50   48.33   53.17   58.00   62.83   67.67   72.50

   Height   Standard deviation at grid points for the u component:
   162.50    1.899   1.897   1.810   1.721   1.722   1.690   1.841   1.832   1.816   1.791   1.866   1.779   1.859   1.676   1.645   1.549   1.451   1.634   1.582   1.685   1.797   1.813   1.834   1.834   1.924   2.048   2.014   2.035   2.133   1.888   1.844
   157.67    1.832   1.834   1.843   1.667   1.658   1.743   1.860   1.863   1.812   1.800   1.845   1.829   1.825   1.679   1.701   1.622   1.676   1.612   1.714   1.960   1.962   1.950   1.882   1.875   1.849   1.817   1.881   1.970   1.962   1.847   1.776
   152.83    1.812   1.835   1.895   1.940   1.706   1.828   1.977   1.965   1.822   1.841   1.717   1.755   1.696   1.764   1.748   1.791   1.694   1.716   1.860   2.081   2.012   2.115   2.094   2.023   1.830   1.665   1.753   1.898   2.044   1.872   1.794
   148.00    1.788   1.817   1.802   1.796   1.766   1.928   1.840   2.047   1.747   1.779   1.719   1.724   1.670   1.747   1.784   1.905   1.776   1.808   1.910   2.035   2.026   2.092   2.087   1.928   1.871   1.663   1.768   1.906   1.974   2.036   2.015
   143.17    1.876   1.893   1.746   1.772   1.810   1.915   1.900   1.984   1.843   1.682   1.673   1.819   1.791   1.727   1.759   1.834   1.861   1.916   1.911   2.051   2.098   2.155   2.101   1.931   1.857   1.777   1.925   1.991   1.976   2.085   2.081
   138.33    1.875   1.821   1.711   1.864   1.813   1.850   1.855   1.825   1.757   1.534   1.576   1.763   1.748   1.744   1.761   1.779   1.825   1.896   2.013   2.162   2.163   2.074   2.178   1.966   1.809   2.032   1.992   2.006   2.031   2.086   2.070
   133.50    1.758   1.744   1.729   1.799   1.819   1.813   1.754   1.751   1.632   1.593   1.738   1.606   1.703   1.701   1.618   1.787   1.961   1.972   2.029   2.097   2.137   2.184   2.171   2.021   2.043   2.016   2.085   2.014   1.904   1.958   1.974
   128.67    1.713   1.604   1.708   1.753   1.805   1.796   1.688   1.539   1.601   1.729   1.616   1.540   1.514   1.615   1.747   1.870   1.856   1.981   1.988   2.105   2.044   2.027   2.167   2.155   2.165   2.092   2.125   1.999   1.901   1.947   1.884
   123.83    1.691   1.675   1.748   1.636   1.641   1.624   1.707   1.653   1.645   1.576   1.424   1.498   1.529   1.562   1.756   1.794   1.865   1.921   1.982   2.079   2.182   2.055   2.170   2.075   2.150   2.128   2.120   1.972   2.009   1.922   2.034
   119.00    1.644   1.625   1.690   1.642   1.790   1.760   1.680   1.729   1.665   1.469   1.453   1.550   1.515   1.554   1.702   1.635   1.798   1.820   1.835   1.943   2.023   2.129   2.070   2.082   2.161   2.184   2.144   2.136   1.893   1.944   1.940
   114.17    1.590   1.592   1.626   1.734   1.762   1.762   1.643   1.687   1.475   1.610   1.515   1.533   1.530   1.772   1.756   1.718   1.732   1.794   1.796   1.855   1.985   2.089   1.970   2.043   1.981   2.149   2.066   2.080   2.006   1.993   2.020
   109.33    1.540   1.644   1.678   1.757   1.733   1.679   1.649   1.519   1.547   1.594   1.584   1.570   1.555   1.748   1.685   1.841   1.733   1.847   1.926   1.959   1.935   1.984   2.011   1.981   1.903   1.994   1.972   2.021   2.032   2.053   1.960
   104.50    1.564   1.689   1.783   1.839   1.828   1.721   1.580   1.633   1.587   1.503   1.556   1.528   1.561   1.625   1.777   1.811   1.766   1.837   1.886   1.943   1.929   1.903   1.978   2.003   1.997   1.972   1.956   1.955   1.975   1.905   1.972
    99.67    1.737   1.716   1.830   1.781   1.777   1.583   1.608   1.652   1.587   1.584   1.658   1.618   1.642   1.553   1.682   1.834   1.793   1.842   1.832   2.001   2.052   2.124   2.077   2.061   1.991   1.974   1.975   1.869   1.933   1.982   1.987
    94.83    1.690   1.858   1.798   1.815   1.821   1.784   1.716   1.576   1.690   1.757   1.789   1.696   1.626   1.564   1.640   1.690   1.726   1.809   1.805   2.077   2.141   2.053   2.063   1.861   1.974   1.935   1.933   1.925   1.999   2.021   1.988
    90.00    1.724   1.719   1.764   1.822   1.771   1.662   1.653   1.663   1.675   1.814   1.793   1.683   1.729   1.786   1.702   1.601   1.794   1.853   1.817   1.941   1.998   2.006   2.011   2.003   1.898   1.991   1.915   2.066   1.999   1.951   2.047
    85.17    1.750   1.729   1.682   1.776   1.787   1.701   1.552   1.632   1.728   1.824   1.775   1.601   1.675   1.682   1.776   1.858   1.836   1.747   1.921   1.990   1.945   1.874   1.907   1.794   1.803   1.852   1.935   1.993   1.792   2.025   1.991
    80.33    1.729   1.650   1.697   1.793   1.544   1.624   1.526   1.501   1.656   1.628   1.674   1.649   1.733   1.814   1.886   1.773   1.786   1.837   1.901   1.948   2.016   1.826   1.799   1.711   1.855   1.763   1.764   1.878   1.956   1.924   1.901
    75.50    1.760   1.744   1.754   1.648   1.595   1.505   1.633   1.584   1.554   1.605   1.576   1.768   1.721   1.807   1.837   1.762   1.760   1.780   1.786   1.790   1.882   1.848   1.708   1.671   1.783   1.793   1.791   1.806   1.923   1.869   1.813
    70.67    1.903   1.692   1.619   1.600   1.612   1.649   1.656   1.652   1.580   1.664   1.691   1.827   1.847   1.904   1.887   1.850   1.880   1.686   1.779   1.725   1.793   1.857   1.785   1.723   1.724   1.820   1.764   1.767   1.759   1.853   1.830
    65.83    1.708   1.544   1.468   1.523   1.614   1.680   1.619   1.613   1.632   1.762   1.760   1.767   1.976   2.013   1.968   1.873   1.888   1.784   1.634   1.593   1.729   1.771   1.794   1.750   1.790   1.823   1.886   1.789   1.635   1.779   1.872
    61.00    1.785   1.554   1.518   1.632   1.568   1.608   1.608   1.597   1.741   1.748   1.783   1.846   2.013   2.016   2.002   1.946   1.769   1.775   1.710   1.791   1.773   1.781   1.858   1.741   1.666   1.739   1.885   1.843   1.725   1.818   1.899
    56.17    1.659   1.701   1.709   1.597   1.559   1.503   1.613   1.653   1.689   1.693   1.738   1.933   1.945   1.975   1.968   1.913   1.715   1.702   1.697   1.782   1.761   1.731   1.734   1.704   1.682   1.755   1.811   1.871   1.901   1.978   2.057
    51.33    1.591   1.582   1.603   1.687   1.558   1.658   1.693   1.706   1.694   1.600   1.797   1.942   1.905   1.905   1.925   1.771   1.790   1.693   1.818   1.962   1.863   1.884   1.715   1.713   1.743   1.937   2.005   1.963   1.944   1.737   2.064
    46.50    1.738   1.697   1.659   1.649   1.670   1.691   1.735   1.684   1.782   1.857   1.823   1.911   1.911   1.902   1.928   1.795   1.839   1.766   1.741   1.784   1.887   2.011   1.925   1.957   1.853   1.902   2.128   2.006   1.951   1.903   2.074
    41.67    1.703   1.769   1.756   1.677   1.652   1.840   1.868   1.889   1.893   1.878   1.919   1.938   1.851   1.866   1.866   1.769   1.855   1.860   1.751   1.831   1.853   1.931   2.045   1.850   1.873   2.000   2.043   2.108   1.894   1.817   1.991
    36.83    1.686   1.741   1.794   1.658   1.699   1.854   1.924   2.003   1.815   1.969   1.973   2.108   1.913   1.950   1.871   1.845   1.813   1.933   1.874   1.922   1.761   1.973   1.967   1.992   1.938   2.109   2.083   1.918   1.929   1.844   1.771
    32.00    1.564   1.662   1.756   1.740   1.788   1.859   2.063   2.034   1.839   1.991   2.059   2.065   2.045   2.003   1.968   1.875   1.867   1.901   1.925   1.898   1.886   1.965   2.044   2.078   2.074   2.046   2.049   2.050   1.903   1.705   1.820
    27.17    1.635   1.676   1.672   1.792   1.798   1.866   1.877   1.887   1.974   1.904   2.113   2.092   2.012   1.984   2.011   1.816   1.726   1.633   1.853   1.863   1.817   1.880   1.910   2.012   1.917   1.979   1.869   1.946   1.947   1.811   1.740
    22.33    1.827   1.696   1.845   1.811   1.804   1.870   1.745   1.729   1.794   1.910   1.980   2.086   2.053   2.054   1.919   1.888   1.812   1.780   1.859   1.795   1.794   2.018   2.082   1.927   1.936   1.883   1.788   1.931   1.810   1.800   1.862
    17.50    1.891   1.826   2.040   1.798   1.956   1.967   1.963   1.842   1.878   1.905   1.902   1.984   1.887   2.004   1.968   2.033   1.972   1.796   1.829   1.902   1.883   1.979   2.071   2.064   2.130   1.848   1.801   1.814   1.955   1.874   1.890

   Height   Standard deviation at grid points for the v component:
   162.50    1.581   1.581   1.581   1.581   1.581   1.581   1.581   1.581   1.581   1.581   1.581   1.581   1.581   1.581   1.581   1.581   1.581   1.581   1.581   1.581   1.581   1.581   1.581   1.581   1.581   1.581   1.581   1.581   1.581   1.581   1.581
   157.67    1.581   1.581   1.581   1.581   1.581   1.581   1.581   1.581   1.581   1.581   1.581   1.581   1.581   1.581   1.581   1.581   1.581   1.581   1.581   1.581   1.581   1.581   1.581   1.581   1.581   1.581   1.581   1.581   1.581   1.581   1.581
   152.83    1.581   1.581   1.581   1.581   1.581   1.581   1.581   1.581   1.581   1.581   1.581   1.581   1.581   1.581   1.581   1.581   1.581   1.581   1.581   1.581   1.581   1.581   1.581   1.581   1.581   1.581   1.581   1.581   1.581   1.581   1.581
   148.00    1.581   1.581   1.581   1.581   1.581   1.581   1.581   1.581   1.581   1.581   1.581   1.581   1.581   1.581   1.581   1.581   1.581   1.581   1.581   1.581   1.581   1.581   1.581   1.581   1.581   1.581   1.581   1.581   1.581   1.581   1.581
   143.17    1.581   1.581   1.581   1.581   1.581   1.581   1.581   1.581   1.581   1.581   1.581   1.581   1.581   1.581   1.581   1.581   1.581   1.581   1.581   1.581   1.581   1.581   1.581   1.581   1.581   1.581   1.581   1.581   1.581   1.581   1.581
   138.33    1.581   1.581   1.581   1.581   1.581   1.581   1.581   1.581   1.581   1.581   1.581   1.581   1.581   1.581   1.581   1.581   1.581   1.581   1.581   1.581   1.581   1.581   1.581   1.581   1.581   1.581   1.581   1.581   1.581   1.581   1.581
   133.50    1.581   1.581   1.581   1.581   1.581   1.581   1.581   1.581   1.581   1.581   1.581   1.581   1.581   1.581   1.581   1.581   1.581   1.581   1.581   1.581   1.581   1.581   1.581   1.581   1.581   1.581   1.581   1.581   1.581   1.581   1.581
   128.67    1.581   1.581   1.581   1.581   1.581   1.581   1.581   1.581   1.581   1.581   1.581   1.581   1.581   1.581   1.581   1.581   1.581   1.581   1.581   1.581   1.581   1.581   1.581   1.581   1.581   1.581   1.581   1.581   1.581   1.581   1.581
   123.83    1.581   1.581   1.581   1.581   1.581   1.581   1.581   1.581   1.581   1.581   1.581   1.581   1.581   1.581   1.581   1.581   1.581   1.581   1.581   1.581   1.581   1.581   1.581   1.581   1.581   1.581   1.581   1.581   1.581   1.581   1.581
   119.00    1.581   1.581   1.581   1.581   1.581   1.581   1.581   1.581   1.581   1.581   1.581   1.581   1.581   1.581   1.581   1.581   1.581   1.581   1.581   1.581   1.581   1.581   1.581   1.581   1.581   1.581   1.581   1.581   1.581   1.581   1.581
   114.17    1.581   1.581   1.581   1.581   1.581   1.581   1.581   1.581   1.581   1.581   1.581   1.581   1.581   1.581   1.581   1.581   1.581   1.581   1.581   1.581   1.581   1.581   1.581   1.581   1.581   1.581   1.581   1.581   1.581   1.581   1.581
   109.33    1.581   1.581   1.581   1.581   1.581   1.581   1.581   1.581   1.581   1.581   1.581   1.581   1.581   1.581   1.581   1.581   1.581   1.581   1.581   1.581   1.581   1.581   1.581   1.581   1.581   1.581   1.581   1.581   1.581   1.581   1.581
   104.50    1.581   1.581   1.581   1.581   1.581   1.581   1.581   1.581   1.581   1.581   1.581   1.581   1.581   1.581   1.581   1.581   1.581   1.581   1.581   1.581   1.581   1.581   1.581   1.581   1.581   1.581   1.581   1.581   1.581   1.581   1.581
    99.67    1.581   1.581   1.581   1.581   1.581   1.581   1.581   1.581   1.581   1.581   1.581   1.581   1.581   1.581   1.581   1.581   1.581   1.581   1.581   1.581   1.581   1.581   1.581   1.581   1.581   1.581   1.581   1.581   1.581   1.581   1.581
    94.83    1.581   1.581   1.581   1.581   1.581   1.581   1.581   1.581   1.581   1.581   1.581   1.581   1.581   1.581   1.581   1.581   1.581   1.581   1.581   1.581   1.581   1.581   1.581   1.581   1.581   1.581   1.581   1.581   1.581   1.581   1.581
    90.00    1.581   1.581   1.581   1.581   1.581   1.581   1.581   1.581   1.581   1.581   1.581   1.581   1.581   1.581   1.581   1.581   1.581   1.581   1.581   1.581   1.581   1.581   1.581   1.581   1.581   1.581   1.581   1.581   1.581   1.581   1.581
    85.17    1.581   1.581   1.581   1.581   1.581   1.581   1.581   1.581   1.581   1.581   1.581   1.581   1.581   1.581   1.581   1.581   1.581   1.581   1.581   1.581   1.581   1.581   1.581   1.581   1.581   1.581   1.581   1.581   1.581   1.581   1.581
    80.33    1.581   1.581   1.581   1.581   1.581   1.581   1.581   1.581   1.581   1.581   1.581   1.581   1.581   1.581   1.581   1.581   1.581   1.581   1.581   1.581   1.581   1.581   1.581   1.581   1.581   1.581   1.581   1.581   1.581   1.581   1.581
    75.50    1.581   1.581   1.581   1.581   1.581   1.581   1.581   1.581   1.581   1.581   1.581   1.581   1.581   1.581   1.581   1.581   1.581   1.581   1.581   1.581   1.581   1.581   1.581   1.581   1.581   1.581   1.581   1.581   1.581   1.581   1.581
    70.67    1.581   1.581   1.581   1.581   1.581   1.581   1.581   1.581   1.581   1.581   1.581   1.581   1.581   1.581   1.581   1.581   1.581   1.581   1.581   1.581   1.581   1.581   1.581   1.581   1.581   1.581   1.581   1.581   1.581   1.581   1.581
    65.83    1.581   1.581   1.581   1.581   1.581   1.581   1.581   1.581   1.581   1.581   1.581   1.581   1.581   1.581   1.581   1.581   1.581   1.581   1.581   1.581   1.581   1.581   1.581   1.581   1.581   1.581   1.581   1.581   1.581   1.581   1.581
    61.00    1.581   1.581   1.581   1.581   1.581   1.581   1.581   1.581   1.581   1.581   1.581   1.581   1.581   1.581   1.581   1.581   1.581   1.581   1.581   1.581   1.581   1.581   1.581   1.581   1.581   1.581   1.581   1.581   1.581   1.581   1.581
    56.17    1.581   1.581   1.581   1.581   1.581   1.581   1.581   1.581   1.581   1.581   1.581   1.581   1.581   1.581   1.581   1.581   1.581   1.581   1.581   1.581   1.581   1.581   1.581   1.581   1.581   1.581   1.581   1.581   1.581   1.581   1.581
    51.33    1.581   1.581   1.581   1.581   1.581   1.581   1.581   1.581   1.581   1.581   1.581   1.581   1.581   1.581   1.581   1.581   1.581   1.581   1.581   1.581   1.581   1.581   1.581   1.581   1.581   1.581   1.581   1.581   1.581   1.581   1.581
    46.50    1.581   1.581   1.581   1.581   1.581   1.581   1.581   1.581   1.581   1.581   1.581   1.581   1.581   1.581   1.581   1.581   1.581   1.581   1.581   1.581   1.581   1.581   1.581   1.581   1.581   1.581   1.581   1.581   1.581   1.581   1.581
    41.67    1.581   1.581   1.581   1.581   1.581   1.581   1.581   1.581   1.581   1.581   1.581   1.581   1.581   1.581   1.581   1.581   1.581   1.581   1.581   1.581   1.581   1.581   1.581   1.581   1.581   1.581   1.581   1.581   1.581   1.581   1.581
    36.83    1.581   1.581   1.581   1.581   1.581   1.581   1.581   1.581   1.581   1.581   1.581   1.581   1.581   1.581   1.581   1.581   1.581   1.581   1.581   1.581   1.581   1.581   1.581   1.581   1.581   1.581   1.581   1.581   1.581   1.581   1.581
    32.00    1.581   1.581   1.581   1.581   1.581   1.581   1.581   1.581   1.581   1.581   1.581   1.581   1.581   1.581   1.581   1.581   1.581   1.581   1.581   1.581   1.581   1.581   1.581   1.581   1.581   1.581   1.581   1.581   1.581   1.581   1.581
    27.17    1.581   1.581   1.581   1.581   1.581   1.581   1.581   1.581   1.581   1.581   1.581   1.581   1.581   1.581   1.581   1.581   1.581   1.581   1.581   1.581   1.581   1.581   1.581   1.581   1.581   1.581   1.581   1.581   1.581   1.581   1.581
    22.33    1.581   1.581   1.581   1.581   1.581   1.581   1.581   1.581   1.581   1.581   1.581   1.581   1.581   1.581   1.581   1.581   1.581   1.581   1.581   1.581   1.581   1.581   1.581   1.581   1.581   1.581   1.581   1.581   1.581   1.581   1.581
    17.50    1.581   1.581   1.581   1.581   1.581   1.581   1.581   1.581   1.581   1.581   1.581   1.581   1.581   1.581   1.581   1.581   1.581   1.581   1.581   1.581   1.581   1.581   1.581   1.581   1.581   1.581   1.581   1.581   1.581   1.581   1.581

   Height   Standard deviation at grid points for the w component:
   162.50    0.996   0.996   0.996   0.996   0.996   0.996   0.996   0.996   0.996   0.996   0.996   0.996   0.996   0.996   0.996   0.996   0.996   0.996   0.996   0.996   0.996   0.996   0.996   0.996   0.996   0.996   0.996   0.996   0.996   0.996   0.996
   157.67    0.996   0.996   0.996   0.996   0.996   0.996   0.996   0.996   0.996   0.996   0.996   0.996   0.996   0.996   0.996   0.996   0.996   0.996   0.996   0.996   0.996   0.996   0.996   0.996   0.996   0.996   0.996   0.996   0.996   0.996   0.996
   152.83    0.996   0.996   0.996   0.996   0.996   0.996   0.996   0.996   0.996   0.996   0.996   0.996   0.996   0.996   0.996   0.996   0.996   0.996   0.996   0.996   0.996   0.996   0.996   0.996   0.996   0.996   0.996   0.996   0.996   0.996   0.996
   148.00    0.996   0.996   0.996   0.996   0.996   0.996   0.996   0.996   0.996   0.996   0.996   0.996   0.996   0.996   0.996   0.996   0.996   0.996   0.996   0.996   0.996   0.996   0.996   0.996   0.996   0.996   0.996   0.996   0.996   0.996   0.996
   143.17    0.996   0.996   0.996   0.996   0.996   0.996   0.996   0.996   0.996   0.996   0.996   0.996   0.996   0.996   0.996   0.996   0.996   0.996   0.996   0.996   0.996   0.996   0.996   0.996   0.996   0.996   0.996   0.996   0.996   0.996   0.996
   138.33    0.996   0.996   0.996   0.996   0.996   0.996   0.996   0.996   0.996   0.996   0.996   0.996   0.996   0.996   0.996   0.996   0.996   0.996   0.996   0.996   0.996   0.996   0.996   0.996   0.996   0.996   0.996   0.996   0.996   0.996   0.996
   133.50    0.996   0.996   0.996   0.996   0.996   0.996   0.996   0.996   0.996   0.996   0.996   0.996   0.996   0.996   0.996   0.996   0.996   0.996   0.996   0.996   0.996   0.996   0.996   0.996   0.996   0.996   0.996   0.996   0.996   0.996   0.996
   128.67    0.996   0.996   0.996   0.996   0.996   0.996   0.996   0.996   0.996   0.996   0.996   0.996   0.996   0.996   0.996   0.996   0.996   0.996   0.996   0.996   0.996   0.996   0.996   0.996   0.996   0.996   0.996   0.996   0.996   0.996   0.996
   123.83    0.996   0.996   0.996   0.996   0.996   0.996   0.996   0.996   0.996   0.996   0.996   0.996   0.996   0.996   0.996   0.996   0.996   0.996   0.996   0.996   0.996   0.996   0.996   0.996   0.996   0.996   0.996   0.996   0.996   0.996   0.996
   119.00    0.996   0.996   0.996   0.996   0.996   0.996   0.996   0.996   0.996   0.996   0.996   0.996   0.996   0.996   0.996   0.996   0.996   0.996   0.996   0.996   0.996   0.996   0.996   0.996   0.996   0.996   0.996   0.996   0.996   0.996   0.996
   114.17    0.996   0.996   0.996   0.996   0.996   0.996   0.996   0.996   0.996   0.996   0.996   0.996   0.996   0.996   0.996   0.996   0.996   0.996   0.996   0.996   0.996   0.996   0.996   0.996   0.996   0.996   0.996   0.996   0.996   0.996   0.996
   109.33    0.996   0.996   0.996   0.996   0.996   0.996   0.996   0.996   0.996   0.996   0.996   0.996   0.996   0.996   0.996   0.996   0.996   0.996   0.996   0.996   0.996   0.996   0.996   0.996   0.996   0.996   0.996   0.996   0.996   0.996   0.996
   104.50    0.996   0.996   0.996   0.996   0.996   0.996   0.996   0.996   0.996   0.996   0.996   0.996   0.996   0.996   0.996   0.996   0.996   0.996   0.996   0.996   0.996   0.996   0.996   0.996   0.996   0.996   0.996   0.996   0.996   0.996   0.996
    99.67    0.996   0.996   0.996   0.996   0.996   0.996   0.996   0.996   0.996   0.996   0.996   0.996   0.996   0.996   0.996   0.996   0.996   0.996   0.996   0.996   0.996   0.996   0.996   0.996   0.996   0.996   0.996   0.996   0.996   0.996   0.996
    94.83    0.996   0.996   0.996   0.996   0.996   0.996   0.996   0.996   0.996   0.996   0.996   0.996   0.996   0.996   0.996   0.996   0.996   0.996   0.996   0.996   0.996   0.996   0.996   0.996   0.996   0.996   0.996   0.996   0.996   0.996   0.996
    90.00    0.996   0.996   0.996   0.996   0.996   0.996   0.996   0.996   0.996   0.996   0.996   0.996   0.996   0.996   0.996   0.996   0.996   0.996   0.996   0.996   0.996   0.996   0.996   0.996   0.996   0.996   0.996   0.996   0.996   0.996   0.996
    85.17    0.996   0.996   0.996   0.996   0.996   0.996   0.996   0.996   0.996   0.996   0.996   0.996   0.996   0.996   0.996   0.996   0.996   0.996   0.996   0.996   0.996   0.996   0.996   0.996   0.996   0.996   0.996   0.996   0.996   0.996   0.996
    80.33    0.996   0.996   0.996   0.996   0.996   0.996   0.996   0.996   0.996   0.996   0.996   0.996   0.996   0.996   0.996   0.996   0.996   0.996   0.996   0.996   0.996   0.996   0.996   0.996   0.996   0.996   0.996   0.996   0.996   0.996   0.996
    75.50    0.996   0.996   0.996   0.996   0.996   0.996   0.996   0.996   0.996   0.996   0.996   0.996   0.996   0.996   0.996   0.996   0.996   0.996   0.996   0.996   0.996   0.996   0.996   0.996   0.996   0.996   0.996   0.996   0.996   0.996   0.996
    70.67    0.996   0.996   0.996   0.996   0.996   0.996   0.996   0.996   0.996   0.996   0.996   0.996   0.996   0.996   0.996   0.996   0.996   0.996   0.996   0.996   0.996   0.996   0.996   0.996   0.996   0.996   0.996   0.996   0.996   0.996   0.996
    65.83    0.996   0.996   0.996   0.996   0.996   0.996   0.996   0.996   0.996   0.996   0.996   0.996   0.996   0.996   0.996   0.996   0.996   0.996   0.996   0.996   0.996   0.996   0.996   0.996   0.996   0.996   0.996   0.996   0.996   0.996   0.996
    61.00    0.996   0.996   0.996   0.996   0.996   0.996   0.996   0.996   0.996   0.996   0.996   0.996   0.996   0.996   0.996   0.996   0.996   0.996   0.996   0.996   0.996   0.996   0.996   0.996   0.996   0.996   0.996   0.996   0.996   0.996   0.996
    56.17    0.996   0.996   0.996   0.996   0.996   0.996   0.996   0.996   0.996   0.996   0.996   0.996   0.996   0.996   0.996   0.996   0.996   0.996   0.996   0.996   0.996   0.996   0.996   0.996   0.996   0.996   0.996   0.996   0.996   0.996   0.996
    51.33    0.996   0.996   0.996   0.996   0.996   0.996   0.996   0.996   0.996   0.996   0.996   0.996   0.996   0.996   0.996   0.996   0.996   0.996   0.996   0.996   0.996   0.996   0.996   0.996   0.996   0.996   0.996   0.996   0.996   0.996   0.996
    46.50    0.996   0.996   0.996   0.996   0.996   0.996   0.996   0.996   0.996   0.996   0.996   0.996   0.996   0.996   0.996   0.996   0.996   0.996   0.996   0.996   0.996   0.996   0.996   0.996   0.996   0.996   0.996   0.996   0.996   0.996   0.996
    41.67    0.996   0.996   0.996   0.996   0.996   0.996   0.996   0.996   0.996   0.996   0.996   0.996   0.996   0.996   0.996   0.996   0.996   0.996   0.996   0.996   0.996   0.996   0.996   0.996   0.996   0.996   0.996   0.996   0.996   0.996   0.996
    36.83    0.996   0.996   0.996   0.996   0.996   0.996   0.996   0.996   0.996   0.996   0.996   0.996   0.996   0.996   0.996   0.996   0.996   0.996   0.996   0.996   0.996   0.996   0.996   0.996   0.996   0.996   0.996   0.996   0.996   0.996   0.996
    32.00    0.996   0.996   0.996   0.996   0.996   0.996   0.996   0.996   0.996   0.996   0.996   0.996   0.996   0.996   0.996   0.996   0.996   0.996   0.996   0.996   0.996   0.996   0.996   0.996   0.996   0.996   0.996   0.996   0.996   0.996   0.996
    27.17    0.996   0.996   0.996   0.996   0.996   0.996   0.996   0.996   0.996   0.996   0.996   0.996   0.996   0.996   0.996   0.996   0.996   0.996   0.996   0.996   0.996   0.996   0.996   0.996   0.996   0.996   0.996   0.996   0.996   0.996   0.996
    22.33    0.996   0.996   0.996   0.996   0.996   0.996   0.996   0.996   0.996   0.996   0.996   0.996   0.996   0.996   0.996   0.996   0.996   0.996   0.996   0.996   0.996   0.996   0.996   0.996   0.996   0.996   0.996   0.996   0.996   0.996   0.996
    17.50    0.996   0.996   0.996   0.996   0.996   0.996   0.996   0.996   0.996   0.996   0.996   0.996   0.996   0.996   0.996   0.996   0.996   0.996   0.996   0.996   0.996   0.996   0.996   0.996   0.996   0.996   0.996   0.996   0.996   0.996   0.996

   Mean standard deviation across all grid points:
      u component:    1.828 m/s
      v component:    1.581 m/s
      w component:    0.996 m/s


U-component (X) statistics from the interpolated hub point:

   Mean =  12.0000 m/s
   TI   =  13.3442 %


Processing complete.  39.5 CPU seconds used.
