
This summary file was generated by TurbSim on 15-May-2022 at 13:34:08.


Runtime Options:

     13428  Random seed #1
    RANLUX  Type of random number generator
         F  Output binary HH turbulence parameters?
         F  Output formatted turbulence parameters?
         F  Output AeroDyn HH files?
         T  Output AeroDyn FF files?
         F  Output BLADED FF files?
         T  Output tower data?
         F  Output formatted FF files?
         F  Output coherent turbulence time step file?
         T  Clockwise rotation when looking downwind?
 0 -  NONE  IEC turbulence models scaled to exact specified standard deviation


Turbine/Model Specifications:

        31  Vertical grid-point matrix dimension
        31  Horizontal grid-point matrix dimension
     0.050  Time step [seconds]
  4500.000  Analysis time [seconds]
  4000.000  Usable output time [seconds]
    90.000  Hub height [m]
   145.000  Grid height [m]
   145.000  Grid width [m]
     0.000  Vertical flow angle [degrees]
     0.000  Horizontal flow angle [degrees]


Meteorological Boundary Conditions:

    IECKAI  IEC Kaimal spectral model
         1  IEC standard: IEC 61400-1 Ed. 3: 2005
    16.700  Percent turbulence intensity, IEC 61400-1 Ed. 3: 2005
       NTM  IEC Normal Turbulence Model
       N/A  IEC Extreme Turbulence Model (ETM) "c" parameter [m/s]
       PL   Wind profile type
    90.000  Reference height [m]
    18.000  Reference wind speed [m/s]
       N/A  Jet height [m]
     0.200  Power law exponent
     0.030  Surface roughness length [m]


Non-IEC Meteorological Boundary Conditions:

       N/A  Site latitude [degrees]
       N/A  Gradient Richardson number
       N/A  Friction or shear velocity [m/s]
       N/A  Mixing layer depth [m]
       N/A  Mean hub u'w' Reynolds stress
       N/A  Mean hub u'v' Reynolds stress
       N/A  Mean hub v'w' Reynolds stress


Spatial Coherence Models:

       IEC  u-component coherence model
      NONE  v-component coherence model
      NONE  w-component coherence model
(   12.000, 0.353E-03)  u-component coherence parameters
                   N/A  v-component coherence parameters
                   N/A  w-component coherence parameters
       N/A  Coherence exponent


You have requested that the following file(s) be generated:

   90m_18mps_twr_I=0.167.bts (AeroDyn/TurbSim full-field wind file)


Turbulence Simulation Scaling Parameter Summary:

   Turbulence model used                            =  IEC Kaimal
   Turbulence characteristic                        =  User-specified
   IEC standard                                     =  IEC 61400-1 Ed. 3: 2005
   Mean wind speed at hub height                    =   18.000 m/s
   Characteristic value of standard deviation       =    3.006 m/s
   Turbulence scale                                 =   42.000 m
   u-component integral scale                       =  340.200 m
   Coherency scale                                  =  340.200 m
   Characteristic value of hub turbulence intensity =   16.700%
   Gradient Richardson number                       =    0.000

   Wind profile type                                =  Power law
   Power law exponent                               =    0.200
   Mean shear across rotor disk                     =    0.050 (m/s)/m
   Assumed rotor diameter                           =  145.000 m
   Surface roughness length                         =    0.030 m

   Nyquist frequency of turbulent wind field        =   10.000 Hz

   Number of time steps in the FFT                  =    90000
   Number of time steps output                      =    80162
   Number of points simulated                       =      964


Mean Flow Angles:

   Vertical   =   0.0 degrees
   Horizontal =   0.0 degrees

Mean Wind Speed Profile:

   Height    Wind Speed   Horizontal Angle  Vertical Angle  U-comp (X)   V-comp (Y)   W-comp (Z)
     (m)        (m/s)         (degrees)       (degrees)       (m/s)        (m/s)        (m/s)   
   ------    ----------   ----------------  --------------  ----------   ----------   ----------
    162.5       20.26            0.00            0.00         20.26         0.00         0.00
    157.7       20.14            0.00            0.00         20.14         0.00         0.00
    152.8       20.01            0.00            0.00         20.01         0.00         0.00
    148.0       19.88            0.00            0.00         19.88         0.00         0.00
    143.2       19.75            0.00            0.00         19.75         0.00         0.00
    138.3       19.62            0.00            0.00         19.62         0.00         0.00
    133.5       19.48            0.00            0.00         19.48         0.00         0.00
    128.7       19.33            0.00            0.00         19.33         0.00         0.00
    123.8       19.19            0.00            0.00         19.19         0.00         0.00
    119.0       19.03            0.00            0.00         19.03         0.00         0.00
    114.2       18.88            0.00            0.00         18.88         0.00         0.00
    109.3       18.71            0.00            0.00         18.71         0.00         0.00
    104.5       18.55            0.00            0.00         18.55         0.00         0.00
     99.7       18.37            0.00            0.00         18.37         0.00         0.00
     94.8       18.19            0.00            0.00         18.19         0.00         0.00
     90.0       18.00            0.00            0.00         18.00         0.00         0.00
     85.2       17.80            0.00            0.00         17.80         0.00         0.00
     80.3       17.60            0.00            0.00         17.60         0.00         0.00
     75.5       17.38            0.00            0.00         17.38         0.00         0.00
     70.7       17.15            0.00            0.00         17.15         0.00         0.00
     65.8       16.91            0.00            0.00         16.91         0.00         0.00
     61.0       16.65            0.00            0.00         16.65         0.00         0.00
     56.2       16.38            0.00            0.00         16.38         0.00         0.00
     51.3       16.09            0.00            0.00         16.09         0.00         0.00
     46.5       15.77            0.00            0.00         15.77         0.00         0.00
     41.7       15.43            0.00            0.00         15.43         0.00         0.00
     36.8       15.05            0.00            0.00         15.05         0.00         0.00
     32.0       14.64            0.00            0.00         14.64         0.00         0.00
     27.2       14.17            0.00            0.00         14.17         0.00         0.00
     22.3       13.62            0.00            0.00         13.62         0.00         0.00
     17.5       12.97            0.00            0.00         12.97         0.00         0.00
     12.7       12.16            0.00            0.00         12.16         0.00         0.00
      7.8       11.05            0.00            0.00         11.05         0.00         0.00
      3.0        9.12            0.00            0.00          9.12         0.00         0.00


Harvested Random Seeds after Generation of the Random Numbers:

    209217500 K 1
            1 K 2


Hub-Height Simulated Turbulence Statistical Summary:

   Type of Wind        Min (m/s)   Mean (m/s)    Max (m/s)  Sigma (m/s)       TI (%)
   ----------------    ---------   ----------    ---------  -----------       ------
   Longitudinal (u)         6.96        18.00        27.98        2.973       16.516
   Lateral (v)             -9.55        -0.00         9.20        2.378       13.213
   Vertical (w)            -6.05        -0.00         6.17        1.466        8.142
   U component              6.96        18.00        27.98        2.973       16.516
   V component             -9.55        -0.00         9.20        2.378       13.213
   W component             -6.05        -0.00         6.17        1.466        8.142
   Horizontal (U&V)         7.02        18.16        28.23        2.956       16.278
   Total                    7.05        18.22        28.24        2.947       16.176

                       Min Reynolds     Mean Reynolds    Max Reynolds    Correlation
   Product             Stress (m/s)^2   Stress (m/s)^2   Stress (m/s)^2  Coefficient
   ----------------    --------------   --------------   --------------  -----------
   u'w'                    -35.576            -0.164            34.327        -0.038
   u'v'                    -79.782            -0.044            50.122        -0.006
   v'w'                    -29.109            -0.017            34.716        -0.005


   Friction Velocity (Ustar)  =      0.405 m/s
   Maximum Instantaneous TKE  =     82.097 (m/s)^2
   Maximum Instantaneous CTKE =     41.479 (m/s)^2


Grid Point Variance Summary:

   Y-coord  -72.50  -67.67  -62.83  -58.00  -53.17  -48.33  -43.50  -38.67  -33.83  -29.00  -24.17  -19.33  -14.50   -9.67   -4.83    0.00    4.83    9.67   14.50   19.33   24.17   29.00   33.83   38.67   43.50   48.33   53.17   58.00   62.83   67.67   72.50

   Height   Standard deviation at grid points for the u component:
   162.50    2.882   2.879   2.949   2.953   2.891   2.938   2.893   2.942   2.940   3.004   2.983   2.966   2.989   2.922   2.865   2.973   2.970   2.965   2.998   3.028   3.041   3.050   3.034   3.042   3.081   3.053   3.050   3.108   3.085   3.063   3.066
   157.67    2.869   2.844   2.892   2.921   2.919   2.884   2.902   2.944   2.950   2.951   2.974   2.995   2.983   2.970   2.931   2.952   2.966   2.988   2.972   3.010   3.053   3.041   3.028   3.082   3.083   3.076   3.063   3.087   3.126   3.123   3.042
   152.83    2.868   2.883   2.873   2.901   2.904   2.921   2.855   2.856   2.887   2.868   2.945   3.007   3.023   2.967   2.942   2.925   2.945   3.007   2.959   3.042   3.044   3.044   3.100   3.085   3.117   3.115   3.119   3.103   3.061   3.065   3.043
   148.00    2.880   2.904   2.850   2.872   2.892   2.858   2.873   2.859   2.820   2.856   2.962   2.987   2.991   2.945   2.926   2.858   2.947   2.988   3.026   3.008   3.097   3.084   3.102   3.088   3.079   3.114   3.138   3.088   3.080   3.105   3.065
   143.17    2.898   2.856   2.828   2.814   2.859   2.850   2.865   2.850   2.838   2.893   2.931   2.979   2.968   2.910   2.906   2.953   2.958   3.004   2.994   3.003   3.002   3.083   3.100   3.035   3.046   3.097   3.151   3.096   3.104   3.060   3.025
   138.33    2.876   2.841   2.852   2.809   2.851   2.838   2.820   2.813   2.875   2.935   2.900   2.894   2.916   2.924   2.939   2.972   2.945   2.923   2.935   2.956   2.976   3.021   3.079   3.059   3.006   3.021   3.080   3.096   3.070   3.046   3.070
   133.50    2.855   2.851   2.863   2.872   2.877   2.830   2.822   2.852   2.909   2.949   2.926   2.864   2.909   2.920   2.930   2.931   2.929   2.916   2.950   2.942   2.977   3.055   3.055   3.020   3.015   3.016   3.035   3.009   3.023   2.994   3.013
   128.67    2.835   2.874   2.895   2.856   2.854   2.853   2.863   2.834   2.922   2.976   2.938   2.872   2.852   2.907   2.918   2.894   2.884   2.883   2.925   2.959   3.012   3.045   3.032   2.984   2.976   3.014   3.034   2.998   2.944   2.973   2.950
   123.83    2.876   2.852   2.815   2.824   2.858   2.933   2.881   2.794   2.896   2.939   2.921   2.918   2.910   2.909   2.902   2.864   2.891   2.884   2.972   2.947   2.947   3.007   2.995   2.982   2.992   3.010   2.962   2.940   2.949   2.976   2.942
   119.00    2.905   2.894   2.885   2.874   2.842   2.852   2.844   2.835   2.887   2.935   2.918   2.918   2.886   2.868   2.888   2.943   2.841   2.893   2.971   2.904   2.944   2.981   2.969   2.963   3.011   3.031   2.979   2.941   2.967   2.939   2.912
   114.17    2.902   2.940   2.928   2.866   2.865   2.855   2.841   2.892   2.935   2.926   2.906   2.916   2.907   2.895   2.885   2.887   2.856   2.854   2.874   2.879   2.917   2.925   2.968   2.997   2.994   3.054   3.019   2.996   2.973   2.916   2.869
   109.33    2.901   2.938   2.933   2.873   2.915   2.810   2.854   2.881   2.919   2.946   2.917   2.918   2.933   2.921   2.916   2.915   2.886   2.887   2.917   2.905   2.983   2.996   2.985   3.025   2.979   3.001   2.997   2.974   2.967   2.908   2.880
   104.50    2.962   2.964   2.921   2.925   2.892   2.875   2.860   2.885   2.928   2.933   2.981   2.999   2.955   2.941   2.927   2.907   2.895   2.925   2.880   2.937   2.964   2.992   3.013   2.976   2.964   2.956   2.929   2.953   2.927   2.906   2.922
    99.67    2.930   2.894   2.881   2.906   2.886   2.875   2.825   2.845   2.930   2.924   2.921   2.964   2.954   2.929   2.925   2.915   2.928   2.958   2.931   2.925   2.983   3.039   3.030   2.991   2.946   2.960   2.939   2.914   2.932   2.933   2.960
    94.83    2.917   2.936   2.898   2.872   2.856   2.908   2.899   2.921   2.893   2.871   2.917   2.931   2.982   2.923   2.937   2.914   2.960   3.018   2.986   2.960   2.939   2.964   3.000   2.969   2.996   2.983   2.912   2.892   2.911   2.979   2.962
    90.00    2.942   2.899   2.887   2.863   2.869   2.872   2.908   2.938   2.935   2.912   2.898   2.924   2.934   2.858   2.889   2.973   2.985   2.979   2.945   2.963   2.938   2.954   2.937   2.952   2.965   2.938   2.915   2.920   2.935   2.968   2.989
    85.17    2.925   2.867   2.858   2.904   2.944   2.925   2.911   2.903   2.925   2.885   2.888   2.883   2.890   2.864   2.929   2.918   2.892   2.956   2.941   2.924   2.920   2.921   2.933   2.954   2.938   2.928   2.914   2.937   2.992   3.013   2.979
    80.33    2.884   2.856   2.873   2.905   2.947   2.923   2.867   2.856   2.865   2.862   2.919   2.898   2.848   2.865   2.861   2.880   2.905   2.934   2.939   2.885   2.954   2.916   2.944   2.973   2.991   2.964   2.872   2.932   3.009   3.029   3.053
    75.50    2.862   2.837   2.808   2.874   2.933   2.887   2.859   2.843   2.857   2.843   2.843   2.831   2.822   2.762   2.820   2.881   2.889   2.902   2.931   2.939   2.959   2.911   2.942   2.920   2.955   2.983   2.939   2.971   2.991   2.981   3.057
    70.67    2.855   2.806   2.813   2.839   2.896   2.877   2.820   2.798   2.791   2.806   2.818   2.810   2.800   2.759   2.803   2.891   2.908   2.898   2.894   2.955   2.962   2.909   2.929   2.886   2.944   2.954   2.989   2.982   3.029   3.003   3.005
    65.83    2.818   2.762   2.781   2.795   2.881   2.903   2.862   2.800   2.831   2.775   2.823   2.807   2.761   2.788   2.846   2.893   2.923   2.890   2.897   2.885   2.921   2.836   2.850   2.936   2.954   3.005   2.988   2.992   2.998   2.939   2.930
    61.00    2.841   2.786   2.737   2.778   2.873   2.878   2.822   2.825   2.767   2.784   2.803   2.795   2.802   2.871   2.892   2.886   2.914   2.927   2.906   2.913   2.917   2.882   2.863   2.951   2.985   3.004   2.986   3.032   3.044   2.959   2.977
    56.17    2.855   2.817   2.759   2.767   2.894   2.844   2.855   2.808   2.790   2.799   2.797   2.819   2.791   2.832   2.885   2.914   2.904   2.876   2.935   2.921   2.920   2.895   2.918   2.936   2.964   3.059   3.031   3.081   3.039   2.996   3.024
    51.33    2.835   2.824   2.796   2.807   2.882   2.880   2.869   2.889   2.869   2.787   2.812   2.789   2.819   2.871   2.877   2.880   2.899   2.920   2.923   2.909   2.930   2.903   2.942   2.926   2.979   3.035   3.031   3.060   3.040   3.016   3.020
    46.50    2.873   2.830   2.829   2.870   2.878   2.830   2.838   2.855   2.881   2.869   2.855   2.815   2.847   2.843   2.870   2.806   2.808   2.853   2.887   2.883   2.885   2.872   2.890   2.918   3.011   3.020   3.092   3.081   3.082   3.068   3.041
    41.67    2.905   2.905   2.858   2.857   2.847   2.820   2.782   2.850   2.873   2.871   2.909   2.900   2.897   2.848   2.820   2.781   2.784   2.834   2.847   2.895   2.892   2.856   2.859   2.897   2.989   3.046   3.093   3.065   3.081   3.079   3.067
    36.83    2.937   2.876   2.857   2.861   2.860   2.873   2.827   2.883   2.851   2.872   2.924   2.923   2.926   2.814   2.849   2.835   2.798   2.808   2.791   2.855   2.910   2.913   2.900   2.897   2.974   2.988   3.039   3.040   3.052   3.063   3.073
    32.00    2.914   2.933   2.883   2.889   2.898   2.837   2.833   2.881   2.797   2.816   2.873   2.902   2.878   2.846   2.830   2.780   2.779   2.799   2.859   2.901   2.900   2.909   2.930   2.926   2.967   2.994   2.993   3.038   3.044   3.070   3.093
    27.17    2.938   2.928   2.911   2.920   2.890   2.796   2.828   2.837   2.787   2.860   2.909   2.950   2.923   2.885   2.839   2.863   2.845   2.859   2.863   2.890   2.922   2.867   2.902   2.944   2.985   2.986   2.999   3.023   3.035   3.071   3.016
    22.33    2.973   2.956   2.976   2.917   2.950   2.899   2.856   2.848   2.840   2.914   2.973   2.908   2.908   2.924   2.900   2.885   2.870   2.944   2.943   2.913   2.899   2.955   2.967   3.013   3.016   3.027   3.078   3.015   3.048   3.041   3.008
    17.50    2.980   3.011   2.979   2.951   2.968   2.950   2.919   2.944   2.935   2.953   2.974   2.916   2.964   2.946   2.951   2.882   2.931   2.932   2.913   2.923   2.955   2.938   2.955   2.991   2.989   3.068   3.115   3.071   3.064   3.072   3.015

   Height   Standard deviation at grid points for the v component:
   162.50    2.378   2.378   2.378   2.378   2.378   2.378   2.378   2.378   2.378   2.378   2.378   2.378   2.378   2.378   2.378   2.378   2.378   2.378   2.378   2.378   2.378   2.378   2.378   2.378   2.378   2.378   2.378   2.378   2.378   2.378   2.378
   157.67    2.378   2.378   2.378   2.378   2.378   2.378   2.378   2.378   2.378   2.378   2.378   2.378   2.378   2.378   2.378   2.378   2.378   2.378   2.378   2.378   2.378   2.378   2.378   2.378   2.378   2.378   2.378   2.378   2.378   2.378   2.378
   152.83    2.378   2.378   2.378   2.378   2.378   2.378   2.378   2.378   2.378   2.378   2.378   2.378   2.378   2.378   2.378   2.378   2.378   2.378   2.378   2.378   2.378   2.378   2.378   2.378   2.378   2.378   2.378   2.378   2.378   2.378   2.378
   148.00    2.378   2.378   2.378   2.378   2.378   2.378   2.378   2.378   2.378   2.378   2.378   2.378   2.378   2.378   2.378   2.378   2.378   2.378   2.378   2.378   2.378   2.378   2.378   2.378   2.378   2.378   2.378   2.378   2.378   2.378   2.378
   143.17    2.378   2.378   2.378   2.378   2.378   2.378   2.378   2.378   2.378   2.378   2.378   2.378   2.378   2.378   2.378   2.378   2.378   2.378   2.378   2.378   2.378   2.378   2.378   2.378   2.378   2.378   2.378   2.378   2.378   2.378   2.378
   138.33    2.378   2.378   2.378   2.378   2.378   2.378   2.378   2.378   2.378   2.378   2.378   2.378   2.378   2.378   2.378   2.378   2.378   2.378   2.378   2.378   2.378   2.378   2.378   2.378   2.378   2.378   2.378   2.378   2.378   2.378   2.378
   133.50    2.378   2.378   2.378   2.378   2.378   2.378   2.378   2.378   2.378   2.378   2.378   2.378   2.378   2.378   2.378   2.378   2.378   2.378   2.378   2.378   2.378   2.378   2.378   2.378   2.378   2.378   2.378   2.378   2.378   2.378   2.378
   128.67    2.378   2.378   2.378   2.378   2.378   2.378   2.378   2.378   2.378   2.378   2.378   2.378   2.378   2.378   2.378   2.378   2.378   2.378   2.378   2.378   2.378   2.378   2.378   2.378   2.378   2.378   2.378   2.378   2.378   2.378   2.378
   123.83    2.378   2.378   2.378   2.378   2.378   2.378   2.378   2.378   2.378   2.378   2.378   2.378   2.378   2.378   2.378   2.378   2.378   2.378   2.378   2.378   2.378   2.378   2.378   2.378   2.378   2.378   2.378   2.378   2.378   2.378   2.378
   119.00    2.378   2.378   2.378   2.378   2.378   2.378   2.378   2.378   2.378   2.378   2.378   2.378   2.378   2.378   2.378   2.378   2.378   2.378   2.378   2.378   2.378   2.378   2.378   2.378   2.378   2.378   2.378   2.378   2.378   2.378   2.378
   114.17    2.378   2.378   2.378   2.378   2.378   2.378   2.378   2.378   2.378   2.378   2.378   2.378   2.378   2.378   2.378   2.378   2.378   2.378   2.378   2.378   2.378   2.378   2.378   2.378   2.378   2.378   2.378   2.378   2.378   2.378   2.378
   109.33    2.378   2.378   2.378   2.378   2.378   2.378   2.378   2.378   2.378   2.378   2.378   2.378   2.378   2.378   2.378   2.378   2.378   2.378   2.378   2.378   2.378   2.378   2.378   2.378   2.378   2.378   2.378   2.378   2.378   2.378   2.378
   104.50    2.378   2.378   2.378   2.378   2.378   2.378   2.378   2.378   2.378   2.378   2.378   2.378   2.378   2.378   2.378   2.378   2.378   2.378   2.378   2.378   2.378   2.378   2.378   2.378   2.378   2.378   2.378   2.378   2.378   2.378   2.378
    99.67    2.378   2.378   2.378   2.378   2.378   2.378   2.378   2.378   2.378   2.378   2.378   2.378   2.378   2.378   2.378   2.378   2.378   2.378   2.378   2.378   2.378   2.378   2.378   2.378   2.378   2.378   2.378   2.378   2.378   2.378   2.378
    94.83    2.378   2.378   2.378   2.378   2.378   2.378   2.378   2.378   2.378   2.378   2.378   2.378   2.378   2.378   2.378   2.378   2.378   2.378   2.378   2.378   2.378   2.378   2.378   2.378   2.378   2.378   2.378   2.378   2.378   2.378   2.378
    90.00    2.378   2.378   2.378   2.378   2.378   2.378   2.378   2.378   2.378   2.378   2.378   2.378   2.378   2.378   2.378   2.378   2.378   2.378   2.378   2.378   2.378   2.378   2.378   2.378   2.378   2.378   2.378   2.378   2.378   2.378   2.378
    85.17    2.378   2.378   2.378   2.378   2.378   2.378   2.378   2.378   2.378   2.378   2.378   2.378   2.378   2.378   2.378   2.378   2.378   2.378   2.378   2.378   2.378   2.378   2.378   2.378   2.378   2.378   2.378   2.378   2.378   2.378   2.378
    80.33    2.378   2.378   2.378   2.378   2.378   2.378   2.378   2.378   2.378   2.378   2.378   2.378   2.378   2.378   2.378   2.378   2.378   2.378   2.378   2.378   2.378   2.378   2.378   2.378   2.378   2.378   2.378   2.378   2.378   2.378   2.378
    75.50    2.378   2.378   2.378   2.378   2.378   2.378   2.378   2.378   2.378   2.378   2.378   2.378   2.378   2.378   2.378   2.378   2.378   2.378   2.378   2.378   2.378   2.378   2.378   2.378   2.378   2.378   2.378   2.378   2.378   2.378   2.378
    70.67    2.378   2.378   2.378   2.378   2.378   2.378   2.378   2.378   2.378   2.378   2.378   2.378   2.378   2.378   2.378   2.378   2.378   2.378   2.378   2.378   2.378   2.378   2.378   2.378   2.378   2.378   2.378   2.378   2.378   2.378   2.378
    65.83    2.378   2.378   2.378   2.378   2.378   2.378   2.378   2.378   2.378   2.378   2.378   2.378   2.378   2.378   2.378   2.378   2.378   2.378   2.378   2.378   2.378   2.378   2.378   2.378   2.378   2.378   2.378   2.378   2.378   2.378   2.378
    61.00    2.378   2.378   2.378   2.378   2.378   2.378   2.378   2.378   2.378   2.378   2.378   2.378   2.378   2.378   2.378   2.378   2.378   2.378   2.378   2.378   2.378   2.378   2.378   2.378   2.378   2.378   2.378   2.378   2.378   2.378   2.378
    56.17    2.378   2.378   2.378   2.378   2.378   2.378   2.378   2.378   2.378   2.378   2.378   2.378   2.378   2.378   2.378   2.378   2.378   2.378   2.378   2.378   2.378   2.378   2.378   2.378   2.378   2.378   2.378   2.378   2.378   2.378   2.378
    51.33    2.378   2.378   2.378   2.378   2.378   2.378   2.378   2.378   2.378   2.378   2.378   2.378   2.378   2.378   2.378   2.378   2.378   2.378   2.378   2.378   2.378   2.378   2.378   2.378   2.378   2.378   2.378   2.378   2.378   2.378   2.378
    46.50    2.378   2.378   2.378   2.378   2.378   2.378   2.378   2.378   2.378   2.378   2.378   2.378   2.378   2.378   2.378   2.378   2.378   2.378   2.378   2.378   2.378   2.378   2.378   2.378   2.378   2.378   2.378   2.378   2.378   2.378   2.378
    41.67    2.378   2.378   2.378   2.378   2.378   2.378   2.378   2.378   2.378   2.378   2.378   2.378   2.378   2.378   2.378   2.378   2.378   2.378   2.378   2.378   2.378   2.378   2.378   2.378   2.378   2.378   2.378   2.378   2.378   2.378   2.378
    36.83    2.378   2.378   2.378   2.378   2.378   2.378   2.378   2.378   2.378   2.378   2.378   2.378   2.378   2.378   2.378   2.378   2.378   2.378   2.378   2.378   2.378   2.378   2.378   2.378   2.378   2.378   2.378   2.378   2.378   2.378   2.378
    32.00    2.378   2.378   2.378   2.378   2.378   2.378   2.378   2.378   2.378   2.378   2.378   2.378   2.378   2.378   2.378   2.378   2.378   2.378   2.378   2.378   2.378   2.378   2.378   2.378   2.378   2.378   2.378   2.378   2.378   2.378   2.378
    27.17    2.378   2.378   2.378   2.378   2.378   2.378   2.378   2.378   2.378   2.378   2.378   2.378   2.378   2.378   2.378   2.378   2.378   2.378   2.378   2.378   2.378   2.378   2.378   2.378   2.378   2.378   2.378   2.378   2.378   2.378   2.378
    22.33    2.378   2.378   2.378   2.378   2.378   2.378   2.378   2.378   2.378   2.378   2.378   2.378   2.378   2.378   2.378   2.378   2.378   2.378   2.378   2.378   2.378   2.378   2.378   2.378   2.378   2.378   2.378   2.378   2.378   2.378   2.378
    17.50    2.378   2.378   2.378   2.378   2.378   2.378   2.378   2.378   2.378   2.378   2.378   2.378   2.378   2.378   2.378   2.378   2.378   2.378   2.378   2.378   2.378   2.378   2.378   2.378   2.378   2.378   2.378   2.378   2.378   2.378   2.378

   Height   Standard deviation at grid points for the w component:
   162.50    1.466   1.466   1.466   1.466   1.466   1.466   1.466   1.466   1.466   1.466   1.466   1.466   1.466   1.466   1.466   1.466   1.466   1.466   1.466   1.466   1.466   1.466   1.466   1.466   1.466   1.466   1.466   1.466   1.466   1.466   1.466
   157.67    1.466   1.466   1.466   1.466   1.466   1.466   1.466   1.466   1.466   1.466   1.466   1.466   1.466   1.466   1.466   1.466   1.466   1.466   1.466   1.466   1.466   1.466   1.466   1.466   1.466   1.466   1.466   1.466   1.466   1.466   1.466
   152.83    1.466   1.466   1.466   1.466   1.466   1.466   1.466   1.466   1.466   1.466   1.466   1.466   1.466   1.466   1.466   1.466   1.466   1.466   1.466   1.466   1.466   1.466   1.466   1.466   1.466   1.466   1.466   1.466   1.466   1.466   1.466
   148.00    1.466   1.466   1.466   1.466   1.466   1.466   1.466   1.466   1.466   1.466   1.466   1.466   1.466   1.466   1.466   1.466   1.466   1.466   1.466   1.466   1.466   1.466   1.466   1.466   1.466   1.466   1.466   1.466   1.466   1.466   1.466
   143.17    1.466   1.466   1.466   1.466   1.466   1.466   1.466   1.466   1.466   1.466   1.466   1.466   1.466   1.466   1.466   1.466   1.466   1.466   1.466   1.466   1.466   1.466   1.466   1.466   1.466   1.466   1.466   1.466   1.466   1.466   1.466
   138.33    1.466   1.466   1.466   1.466   1.466   1.466   1.466   1.466   1.466   1.466   1.466   1.466   1.466   1.466   1.466   1.466   1.466   1.466   1.466   1.466   1.466   1.466   1.466   1.466   1.466   1.466   1.466   1.466   1.466   1.466   1.466
   133.50    1.466   1.466   1.466   1.466   1.466   1.466   1.466   1.466   1.466   1.466   1.466   1.466   1.466   1.466   1.466   1.466   1.466   1.466   1.466   1.466   1.466   1.466   1.466   1.466   1.466   1.466   1.466   1.466   1.466   1.466   1.466
   128.67    1.466   1.466   1.466   1.466   1.466   1.466   1.466   1.466   1.466   1.466   1.466   1.466   1.466   1.466   1.466   1.466   1.466   1.466   1.466   1.466   1.466   1.466   1.466   1.466   1.466   1.466   1.466   1.466   1.466   1.466   1.466
   123.83    1.466   1.466   1.466   1.466   1.466   1.466   1.466   1.466   1.466   1.466   1.466   1.466   1.466   1.466   1.466   1.466   1.466   1.466   1.466   1.466   1.466   1.466   1.466   1.466   1.466   1.466   1.466   1.466   1.466   1.466   1.466
   119.00    1.466   1.466   1.466   1.466   1.466   1.466   1.466   1.466   1.466   1.466   1.466   1.466   1.466   1.466   1.466   1.466   1.466   1.466   1.466   1.466   1.466   1.466   1.466   1.466   1.466   1.466   1.466   1.466   1.466   1.466   1.466
   114.17    1.466   1.466   1.466   1.466   1.466   1.466   1.466   1.466   1.466   1.466   1.466   1.466   1.466   1.466   1.466   1.466   1.466   1.466   1.466   1.466   1.466   1.466   1.466   1.466   1.466   1.466   1.466   1.466   1.466   1.466   1.466
   109.33    1.466   1.466   1.466   1.466   1.466   1.466   1.466   1.466   1.466   1.466   1.466   1.466   1.466   1.466   1.466   1.466   1.466   1.466   1.466   1.466   1.466   1.466   1.466   1.466   1.466   1.466   1.466   1.466   1.466   1.466   1.466
   104.50    1.466   1.466   1.466   1.466   1.466   1.466   1.466   1.466   1.466   1.466   1.466   1.466   1.466   1.466   1.466   1.466   1.466   1.466   1.466   1.466   1.466   1.466   1.466   1.466   1.466   1.466   1.466   1.466   1.466   1.466   1.466
    99.67    1.466   1.466   1.466   1.466   1.466   1.466   1.466   1.466   1.466   1.466   1.466   1.466   1.466   1.466   1.466   1.466   1.466   1.466   1.466   1.466   1.466   1.466   1.466   1.466   1.466   1.466   1.466   1.466   1.466   1.466   1.466
    94.83    1.466   1.466   1.466   1.466   1.466   1.466   1.466   1.466   1.466   1.466   1.466   1.466   1.466   1.466   1.466   1.466   1.466   1.466   1.466   1.466   1.466   1.466   1.466   1.466   1.466   1.466   1.466   1.466   1.466   1.466   1.466
    90.00    1.466   1.466   1.466   1.466   1.466   1.466   1.466   1.466   1.466   1.466   1.466   1.466   1.466   1.466   1.466   1.466   1.466   1.466   1.466   1.466   1.466   1.466   1.466   1.466   1.466   1.466   1.466   1.466   1.466   1.466   1.466
    85.17    1.466   1.466   1.466   1.466   1.466   1.466   1.466   1.466   1.466   1.466   1.466   1.466   1.466   1.466   1.466   1.466   1.466   1.466   1.466   1.466   1.466   1.466   1.466   1.466   1.466   1.466   1.466   1.466   1.466   1.466   1.466
    80.33    1.466   1.466   1.466   1.466   1.466   1.466   1.466   1.466   1.466   1.466   1.466   1.466   1.466   1.466   1.466   1.466   1.466   1.466   1.466   1.466   1.466   1.466   1.466   1.466   1.466   1.466   1.466   1.466   1.466   1.466   1.466
    75.50    1.466   1.466   1.466   1.466   1.466   1.466   1.466   1.466   1.466   1.466   1.466   1.466   1.466   1.466   1.466   1.466   1.466   1.466   1.466   1.466   1.466   1.466   1.466   1.466   1.466   1.466   1.466   1.466   1.466   1.466   1.466
    70.67    1.466   1.466   1.466   1.466   1.466   1.466   1.466   1.466   1.466   1.466   1.466   1.466   1.466   1.466   1.466   1.466   1.466   1.466   1.466   1.466   1.466   1.466   1.466   1.466   1.466   1.466   1.466   1.466   1.466   1.466   1.466
    65.83    1.466   1.466   1.466   1.466   1.466   1.466   1.466   1.466   1.466   1.466   1.466   1.466   1.466   1.466   1.466   1.466   1.466   1.466   1.466   1.466   1.466   1.466   1.466   1.466   1.466   1.466   1.466   1.466   1.466   1.466   1.466
    61.00    1.466   1.466   1.466   1.466   1.466   1.466   1.466   1.466   1.466   1.466   1.466   1.466   1.466   1.466   1.466   1.466   1.466   1.466   1.466   1.466   1.466   1.466   1.466   1.466   1.466   1.466   1.466   1.466   1.466   1.466   1.466
    56.17    1.466   1.466   1.466   1.466   1.466   1.466   1.466   1.466   1.466   1.466   1.466   1.466   1.466   1.466   1.466   1.466   1.466   1.466   1.466   1.466   1.466   1.466   1.466   1.466   1.466   1.466   1.466   1.466   1.466   1.466   1.466
    51.33    1.466   1.466   1.466   1.466   1.466   1.466   1.466   1.466   1.466   1.466   1.466   1.466   1.466   1.466   1.466   1.466   1.466   1.466   1.466   1.466   1.466   1.466   1.466   1.466   1.466   1.466   1.466   1.466   1.466   1.466   1.466
    46.50    1.466   1.466   1.466   1.466   1.466   1.466   1.466   1.466   1.466   1.466   1.466   1.466   1.466   1.466   1.466   1.466   1.466   1.466   1.466   1.466   1.466   1.466   1.466   1.466   1.466   1.466   1.466   1.466   1.466   1.466   1.466
    41.67    1.466   1.466   1.466   1.466   1.466   1.466   1.466   1.466   1.466   1.466   1.466   1.466   1.466   1.466   1.466   1.466   1.466   1.466   1.466   1.466   1.466   1.466   1.466   1.466   1.466   1.466   1.466   1.466   1.466   1.466   1.466
    36.83    1.466   1.466   1.466   1.466   1.466   1.466   1.466   1.466   1.466   1.466   1.466   1.466   1.466   1.466   1.466   1.466   1.466   1.466   1.466   1.466   1.466   1.466   1.466   1.466   1.466   1.466   1.466   1.466   1.466   1.466   1.466
    32.00    1.466   1.466   1.466   1.466   1.466   1.466   1.466   1.466   1.466   1.466   1.466   1.466   1.466   1.466   1.466   1.466   1.466   1.466   1.466   1.466   1.466   1.466   1.466   1.466   1.466   1.466   1.466   1.466   1.466   1.466   1.466
    27.17    1.466   1.466   1.466   1.466   1.466   1.466   1.466   1.466   1.466   1.466   1.466   1.466   1.466   1.466   1.466   1.466   1.466   1.466   1.466   1.466   1.466   1.466   1.466   1.466   1.466   1.466   1.466   1.466   1.466   1.466   1.466
    22.33    1.466   1.466   1.466   1.466   1.466   1.466   1.466   1.466   1.466   1.466   1.466   1.466   1.466   1.466   1.466   1.466   1.466   1.466   1.466   1.466   1.466   1.466   1.466   1.466   1.466   1.466   1.466   1.466   1.466   1.466   1.466
    17.50    1.466   1.466   1.466   1.466   1.466   1.466   1.466   1.466   1.466   1.466   1.466   1.466   1.466   1.466   1.466   1.466   1.466   1.466   1.466   1.466   1.466   1.466   1.466   1.466   1.466   1.466   1.466   1.466   1.466   1.466   1.466

   Mean standard deviation across all grid points:
      u component:    2.927 m/s
      v component:    2.378 m/s
      w component:    1.466 m/s


U-component (X) statistics from the interpolated hub point:

   Mean =  18.0000 m/s
   TI   =  16.5157 %


Processing complete.  478.09 CPU seconds used.
