
This summary file was generated by TurbSim on 18-Aug-2022 at 08:57:23.


Runtime Options:

     13428  Random seed #1
    RANLUX  Type of random number generator
         F  Output binary HH turbulence parameters?
         F  Output formatted turbulence parameters?
         F  Output AeroDyn HH files?
         T  Output AeroDyn FF files?
         F  Output BLADED FF files?
         T  Output tower data?
         F  Output formatted FF files?
         F  Output coherent turbulence time step file?
         T  Clockwise rotation when looking downwind?
 0 -  NONE  IEC turbulence models scaled to exact specified standard deviation


Turbine/Model Specifications:

        33  Vertical grid-point matrix dimension
        33  Horizontal grid-point matrix dimension
     0.050  Time step [seconds]
  1200.000  Analysis time [seconds]
  1000.000  Usable output time [seconds]
    90.000  Hub height [m]
   160.000  Grid height [m]
   160.000  Grid width [m]
     0.000  Vertical flow angle [degrees]
     0.000  Horizontal flow angle [degrees]


Meteorological Boundary Conditions:

    IECKAI  IEC Kaimal spectral model
         1  IEC standard: IEC 61400-1 Ed. 3: 2005
    14.000  Percent turbulence intensity, IEC 61400-1 Ed. 3: 2005
       NTM  IEC Normal Turbulence Model
       N/A  IEC Extreme Turbulence Model (ETM) "c" parameter [m/s]
       PL   Wind profile type
    90.000  Reference height [m]
     8.000  Reference wind speed [m/s]
       N/A  Jet height [m]
     0.200  Power law exponent
     0.030  Surface roughness length [m]


Non-IEC Meteorological Boundary Conditions:

       N/A  Site latitude [degrees]
       N/A  Gradient Richardson number
       N/A  Friction or shear velocity [m/s]
       N/A  Mixing layer depth [m]
       N/A  Mean hub u'w' Reynolds stress
       N/A  Mean hub u'v' Reynolds stress
       N/A  Mean hub v'w' Reynolds stress


Spatial Coherence Models:

       IEC  u-component coherence model
      NONE  v-component coherence model
      NONE  w-component coherence model
(   12.000, 0.353E-03)  u-component coherence parameters
                   N/A  v-component coherence parameters
                   N/A  w-component coherence parameters
       N/A  Coherence exponent


You have requested that the following file(s) be generated:

   90m_8mps_twr_I=0.14.bts (AeroDyn/TurbSim full-field wind file)


Turbulence Simulation Scaling Parameter Summary:

   Turbulence model used                            =  IEC Kaimal
   Turbulence characteristic                        =  User-specified
   IEC standard                                     =  IEC 61400-1 Ed. 3: 2005
   Mean wind speed at hub height                    =    8.000 m/s
   Characteristic value of standard deviation       =    1.120 m/s
   Turbulence scale                                 =   42.000 m
   u-component integral scale                       =  340.200 m
   Coherency scale                                  =  340.200 m
   Characteristic value of hub turbulence intensity =   14.000%
   Gradient Richardson number                       =    0.000

   Wind profile type                                =  Power law
   Power law exponent                               =    0.200
   Mean shear across rotor disk                     =    0.025 (m/s)/m
   Assumed rotor diameter                           =  160.000 m
   Surface roughness length                         =    0.030 m

   Nyquist frequency of turbulent wind field        =   10.000 Hz

   Number of time steps in the FFT                  =    24000
   Number of time steps output                      =    20400
   Number of points simulated                       =     1090


Mean Flow Angles:

   Vertical   =   0.0 degrees
   Horizontal =   0.0 degrees

Mean Wind Speed Profile:

   Height    Wind Speed   Horizontal Angle  Vertical Angle  U-comp (X)   V-comp (Y)   W-comp (Z)
     (m)        (m/s)         (degrees)       (degrees)       (m/s)        (m/s)        (m/s)   
   ------    ----------   ----------------  --------------  ----------   ----------   ----------
    170.0        9.09            0.00            0.00          9.09         0.00         0.00
    165.0        9.03            0.00            0.00          9.03         0.00         0.00
    160.0        8.98            0.00            0.00          8.98         0.00         0.00
    155.0        8.92            0.00            0.00          8.92         0.00         0.00
    150.0        8.86            0.00            0.00          8.86         0.00         0.00
    145.0        8.80            0.00            0.00          8.80         0.00         0.00
    140.0        8.74            0.00            0.00          8.74         0.00         0.00
    135.0        8.68            0.00            0.00          8.68         0.00         0.00
    130.0        8.61            0.00            0.00          8.61         0.00         0.00
    125.0        8.54            0.00            0.00          8.54         0.00         0.00
    120.0        8.47            0.00            0.00          8.47         0.00         0.00
    115.0        8.40            0.00            0.00          8.40         0.00         0.00
    110.0        8.33            0.00            0.00          8.33         0.00         0.00
    105.0        8.25            0.00            0.00          8.25         0.00         0.00
    100.0        8.17            0.00            0.00          8.17         0.00         0.00
     95.0        8.09            0.00            0.00          8.09         0.00         0.00
     90.0        8.00            0.00            0.00          8.00         0.00         0.00
     85.0        7.91            0.00            0.00          7.91         0.00         0.00
     80.0        7.81            0.00            0.00          7.81         0.00         0.00
     75.0        7.71            0.00            0.00          7.71         0.00         0.00
     70.0        7.61            0.00            0.00          7.61         0.00         0.00
     65.0        7.50            0.00            0.00          7.50         0.00         0.00
     60.0        7.38            0.00            0.00          7.38         0.00         0.00
     55.0        7.25            0.00            0.00          7.25         0.00         0.00
     50.0        7.11            0.00            0.00          7.11         0.00         0.00
     45.0        6.96            0.00            0.00          6.96         0.00         0.00
     40.0        6.80            0.00            0.00          6.80         0.00         0.00
     35.0        6.62            0.00            0.00          6.62         0.00         0.00
     30.0        6.42            0.00            0.00          6.42         0.00         0.00
     25.0        6.19            0.00            0.00          6.19         0.00         0.00
     20.0        5.92            0.00            0.00          5.92         0.00         0.00
     15.0        5.59            0.00            0.00          5.59         0.00         0.00
     10.0        5.16            0.00            0.00          5.16         0.00         0.00
      5.0        4.49            0.00            0.00          4.49         0.00         0.00


Harvested Random Seeds after Generation of the Random Numbers:

    364605000 K 1
            0 K 2


Hub-Height Simulated Turbulence Statistical Summary:

   Type of Wind        Min (m/s)   Mean (m/s)    Max (m/s)  Sigma (m/s)       TI (%)
   ----------------    ---------   ----------    ---------  -----------       ------
   Longitudinal (u)         4.36         8.00        11.29        1.236       15.444
   Lateral (v)             -2.98        -0.00         3.46        0.881       11.006
   Vertical (w)            -2.03        -0.00         2.12        0.550        6.879
   U component              4.36         8.00        11.29        1.236       15.444
   V component             -2.98        -0.00         3.46        0.881       11.006
   W component             -2.03        -0.00         2.12        0.550        6.879
   Horizontal (U&V)         4.39         8.05        11.30        1.228       15.250
   Total                    4.40         8.07        11.32        1.225       15.188

                       Min Reynolds     Mean Reynolds    Max Reynolds    Correlation
   Product             Stress (m/s)^2   Stress (m/s)^2   Stress (m/s)^2  Coefficient
   ----------------    --------------   --------------   --------------  -----------
   u'w'                     -4.241            -0.004             3.798        -0.006
   u'v'                     -4.990             0.090             6.685         0.083
   v'w'                     -3.293             0.009             3.223         0.018


   Friction Velocity (Ustar)  =      0.063 m/s
   Maximum Instantaneous TKE  =      6.762 (m/s)^2
   Maximum Instantaneous CTKE =      3.384 (m/s)^2


Grid Point Variance Summary:

   Y-coord  -80.00  -75.00  -70.00  -65.00  -60.00  -55.00  -50.00  -45.00  -40.00  -35.00  -30.00  -25.00  -20.00  -15.00  -10.00   -5.00    0.00    5.00   10.00   15.00   20.00   25.00   30.00   35.00   40.00   45.00   50.00   55.00   60.00   65.00   70.00   75.00   80.00

   Height   Standard deviation at grid points for the u component:
   170.00    1.193   1.180   1.195   1.184   1.207   1.234   1.245   1.285   1.346   1.400   1.410   1.361   1.351   1.319   1.271   1.266   1.312   1.261   1.276   1.321   1.310   1.357   1.362   1.317   1.335   1.341   1.314   1.261   1.252   1.282   1.258   1.234   1.217
   165.00    1.193   1.208   1.195   1.229   1.194   1.198   1.283   1.348   1.405   1.398   1.402   1.362   1.329   1.300   1.334   1.270   1.272   1.184   1.214   1.249   1.308   1.308   1.318   1.281   1.297   1.285   1.279   1.277   1.329   1.281   1.240   1.241   1.237
   160.00    1.221   1.195   1.150   1.184   1.200   1.266   1.293   1.415   1.466   1.443   1.353   1.309   1.329   1.273   1.329   1.299   1.245   1.201   1.202   1.216   1.199   1.278   1.306   1.284   1.327   1.339   1.278   1.308   1.263   1.244   1.266   1.231   1.269
   155.00    1.232   1.203   1.156   1.172   1.205   1.245   1.250   1.377   1.362   1.409   1.364   1.361   1.323   1.348   1.348   1.330   1.285   1.205   1.170   1.199   1.255   1.269   1.288   1.276   1.388   1.374   1.349   1.303   1.321   1.292   1.280   1.274   1.316
   150.00    1.168   1.258   1.216   1.194   1.170   1.193   1.247   1.300   1.313   1.371   1.363   1.337   1.344   1.361   1.313   1.293   1.299   1.179   1.230   1.203   1.208   1.191   1.276   1.276   1.349   1.410   1.452   1.404   1.286   1.273   1.316   1.373   1.310
   145.00    1.231   1.298   1.249   1.221   1.201   1.119   1.248   1.265   1.311   1.330   1.350   1.321   1.297   1.297   1.314   1.355   1.290   1.197   1.172   1.219   1.223   1.190   1.250   1.271   1.336   1.376   1.385   1.352   1.257   1.269   1.349   1.354   1.289
   140.00    1.230   1.301   1.321   1.274   1.222   1.190   1.242   1.255   1.254   1.347   1.343   1.347   1.389   1.314   1.319   1.287   1.284   1.243   1.200   1.205   1.212   1.212   1.299   1.336   1.331   1.352   1.374   1.304   1.279   1.275   1.360   1.389   1.323
   135.00    1.323   1.335   1.298   1.315   1.282   1.254   1.216   1.212   1.286   1.341   1.380   1.393   1.378   1.318   1.269   1.290   1.257   1.292   1.211   1.251   1.276   1.293   1.343   1.343   1.302   1.269   1.301   1.244   1.252   1.285   1.372   1.315   1.308
   130.00    1.268   1.273   1.272   1.269   1.234   1.201   1.230   1.293   1.272   1.317   1.312   1.352   1.347   1.366   1.295   1.300   1.241   1.258   1.251   1.252   1.250   1.281   1.320   1.330   1.289   1.259   1.300   1.264   1.296   1.331   1.310   1.288   1.330
   125.00    1.249   1.214   1.263   1.245   1.185   1.199   1.224   1.251   1.267   1.276   1.378   1.341   1.361   1.385   1.332   1.311   1.298   1.231   1.239   1.271   1.265   1.256   1.304   1.305   1.295   1.280   1.287   1.353   1.312   1.316   1.389   1.362   1.367
   120.00    1.208   1.253   1.276   1.290   1.251   1.238   1.283   1.278   1.260   1.336   1.381   1.415   1.390   1.305   1.342   1.307   1.307   1.241   1.295   1.236   1.279   1.309   1.266   1.320   1.267   1.232   1.303   1.370   1.319   1.380   1.378   1.410   1.384
   115.00    1.242   1.257   1.293   1.234   1.234   1.247   1.271   1.276   1.259   1.324   1.337   1.395   1.341   1.305   1.299   1.300   1.255   1.282   1.282   1.256   1.246   1.262   1.297   1.296   1.278   1.262   1.338   1.371   1.369   1.387   1.373   1.409   1.390
   110.00    1.210   1.209   1.255   1.231   1.210   1.237   1.274   1.253   1.287   1.350   1.310   1.341   1.356   1.367   1.292   1.281   1.268   1.271   1.278   1.252   1.191   1.193   1.193   1.263   1.260   1.323   1.332   1.352   1.369   1.376   1.420   1.393   1.383
   105.00    1.186   1.207   1.213   1.208   1.261   1.224   1.217   1.222   1.274   1.303   1.295   1.251   1.264   1.282   1.313   1.251   1.284   1.267   1.251   1.203   1.146   1.140   1.192   1.211   1.284   1.329   1.289   1.324   1.301   1.336   1.297   1.317   1.298
   100.00    1.168   1.186   1.202   1.190   1.248   1.247   1.211   1.265   1.270   1.307   1.267   1.200   1.225   1.283   1.285   1.280   1.264   1.213   1.186   1.132   1.148   1.101   1.134   1.218   1.234   1.244   1.286   1.317   1.316   1.322   1.298   1.324   1.325
    95.00    1.199   1.267   1.217   1.233   1.238   1.234   1.262   1.256   1.256   1.239   1.272   1.233   1.240   1.217   1.249   1.235   1.240   1.193   1.187   1.160   1.164   1.124   1.169   1.233   1.242   1.301   1.293   1.323   1.303   1.315   1.333   1.284   1.297
    90.00    1.247   1.249   1.270   1.179   1.161   1.183   1.163   1.257   1.271   1.294   1.291   1.208   1.179   1.189   1.199   1.251   1.236   1.179   1.213   1.167   1.178   1.164   1.214   1.252   1.272   1.370   1.312   1.295   1.365   1.364   1.344   1.286   1.327
    85.00    1.161   1.208   1.239   1.184   1.153   1.176   1.178   1.217   1.245   1.279   1.294   1.206   1.236   1.224   1.194   1.196   1.196   1.128   1.165   1.162   1.156   1.155   1.218   1.204   1.303   1.353   1.343   1.319   1.359   1.430   1.343   1.377   1.410
    80.00    1.190   1.215   1.176   1.211   1.192   1.211   1.230   1.203   1.252   1.256   1.324   1.230   1.253   1.218   1.175   1.153   1.185   1.206   1.149   1.135   1.215   1.202   1.207   1.192   1.314   1.329   1.404   1.373   1.389   1.434   1.393   1.444   1.370
    75.00    1.234   1.272   1.186   1.207   1.276   1.226   1.288   1.277   1.230   1.266   1.306   1.270   1.235   1.265   1.260   1.175   1.177   1.184   1.151   1.197   1.272   1.196   1.234   1.251   1.309   1.335   1.401   1.408   1.420   1.421   1.375   1.433   1.391
    70.00    1.222   1.226   1.210   1.169   1.192   1.251   1.252   1.243   1.307   1.254   1.245   1.289   1.259   1.238   1.220   1.191   1.195   1.173   1.161   1.225   1.267   1.274   1.237   1.246   1.252   1.301   1.368   1.402   1.374   1.416   1.414   1.402   1.432
    65.00    1.249   1.209   1.160   1.240   1.156   1.126   1.209   1.269   1.309   1.257   1.292   1.243   1.299   1.274   1.220   1.232   1.193   1.195   1.229   1.199   1.224   1.291   1.281   1.272   1.242   1.297   1.352   1.385   1.408   1.434   1.366   1.401   1.404
    60.00    1.208   1.167   1.202   1.171   1.169   1.171   1.204   1.250   1.237   1.275   1.272   1.251   1.253   1.265   1.292   1.260   1.262   1.218   1.259   1.188   1.177   1.274   1.239   1.243   1.234   1.315   1.366   1.348   1.368   1.311   1.305   1.309   1.259
    55.00    1.127   1.154   1.195   1.159   1.154   1.158   1.189   1.186   1.190   1.234   1.260   1.242   1.322   1.343   1.334   1.338   1.305   1.311   1.294   1.209   1.198   1.237   1.268   1.222   1.167   1.247   1.283   1.294   1.287   1.242   1.284   1.249   1.243
    50.00    1.053   1.072   1.150   1.177   1.169   1.152   1.192   1.193   1.178   1.196   1.250   1.267   1.349   1.393   1.400   1.362   1.371   1.250   1.252   1.204   1.226   1.243   1.238   1.246   1.263   1.219   1.184   1.244   1.276   1.246   1.272   1.224   1.204
    45.00    1.049   1.073   1.109   1.189   1.170   1.193   1.152   1.166   1.219   1.238   1.294   1.264   1.286   1.378   1.386   1.375   1.331   1.331   1.275   1.280   1.280   1.242   1.217   1.189   1.179   1.192   1.215   1.241   1.278   1.250   1.217   1.224   1.238
    40.00    1.108   1.044   1.063   1.088   1.169   1.141   1.188   1.197   1.237   1.219   1.179   1.175   1.258   1.346   1.380   1.398   1.347   1.316   1.247   1.274   1.208   1.246   1.251   1.245   1.218   1.204   1.223   1.271   1.259   1.237   1.262   1.267   1.237
    35.00    1.087   0.994   1.085   1.083   1.101   1.150   1.149   1.158   1.164   1.150   1.139   1.139   1.213   1.306   1.362   1.331   1.342   1.280   1.296   1.223   1.220   1.249   1.271   1.229   1.206   1.232   1.193   1.298   1.284   1.305   1.272   1.303   1.243
    30.00    1.063   1.056   1.064   1.107   1.129   1.091   1.136   1.159   1.164   1.112   1.137   1.148   1.193   1.300   1.309   1.333   1.366   1.299   1.279   1.182   1.255   1.277   1.322   1.306   1.260   1.255   1.260   1.284   1.320   1.394   1.350   1.303   1.243
    25.00    1.107   1.096   1.074   1.095   1.064   1.117   1.074   1.078   1.131   1.108   1.107   1.184   1.243   1.306   1.321   1.299   1.302   1.300   1.272   1.222   1.235   1.271   1.349   1.281   1.340   1.301   1.326   1.347   1.334   1.359   1.312   1.288   1.255
    20.00    1.214   1.158   1.135   1.095   1.072   1.045   1.066   1.089   1.099   1.097   1.124   1.194   1.256   1.323   1.334   1.332   1.283   1.322   1.243   1.278   1.289   1.294   1.313   1.291   1.313   1.350   1.427   1.380   1.345   1.346   1.300   1.268   1.266
    15.00    1.173   1.132   1.128   1.127   1.093   1.116   1.095   1.113   1.141   1.142   1.158   1.158   1.307   1.282   1.293   1.313   1.240   1.268   1.277   1.318   1.284   1.332   1.279   1.258   1.333   1.390   1.340   1.361   1.343   1.299   1.268   1.310   1.305
    10.00    1.079   1.107   1.118   1.143   1.132   1.109   1.115   1.129   1.187   1.201   1.216   1.199   1.271   1.242   1.292   1.204   1.220   1.218   1.261   1.294   1.330   1.344   1.342   1.256   1.312   1.355   1.313   1.286   1.294   1.286   1.327   1.372   1.307

   Height   Standard deviation at grid points for the v component:
   170.00    0.881   0.881   0.881   0.881   0.881   0.881   0.881   0.881   0.881   0.881   0.881   0.881   0.881   0.881   0.881   0.881   0.881   0.881   0.881   0.881   0.881   0.881   0.881   0.881   0.881   0.881   0.881   0.881   0.881   0.881   0.881   0.881   0.881
   165.00    0.881   0.881   0.881   0.881   0.881   0.881   0.881   0.881   0.881   0.881   0.881   0.881   0.881   0.881   0.881   0.881   0.881   0.881   0.881   0.881   0.881   0.881   0.881   0.881   0.881   0.881   0.881   0.881   0.881   0.881   0.881   0.881   0.881
   160.00    0.881   0.881   0.881   0.881   0.881   0.881   0.881   0.881   0.881   0.881   0.881   0.881   0.881   0.881   0.881   0.881   0.881   0.881   0.881   0.881   0.881   0.881   0.881   0.881   0.881   0.881   0.881   0.881   0.881   0.881   0.881   0.881   0.881
   155.00    0.881   0.881   0.881   0.881   0.881   0.881   0.881   0.881   0.881   0.881   0.881   0.881   0.881   0.881   0.881   0.881   0.881   0.881   0.881   0.881   0.881   0.881   0.881   0.881   0.881   0.881   0.881   0.881   0.881   0.881   0.881   0.881   0.881
   150.00    0.881   0.881   0.881   0.881   0.881   0.881   0.881   0.881   0.881   0.881   0.881   0.881   0.881   0.881   0.881   0.881   0.881   0.881   0.881   0.881   0.881   0.881   0.881   0.881   0.881   0.881   0.881   0.881   0.881   0.881   0.881   0.881   0.881
   145.00    0.881   0.881   0.881   0.881   0.881   0.881   0.881   0.881   0.881   0.881   0.881   0.881   0.881   0.881   0.881   0.881   0.881   0.881   0.881   0.881   0.881   0.881   0.881   0.881   0.881   0.881   0.881   0.881   0.881   0.881   0.881   0.881   0.881
   140.00    0.881   0.881   0.881   0.881   0.881   0.881   0.881   0.881   0.881   0.881   0.881   0.881   0.881   0.881   0.881   0.881   0.881   0.881   0.881   0.881   0.881   0.881   0.881   0.881   0.881   0.881   0.881   0.881   0.881   0.881   0.881   0.881   0.881
   135.00    0.881   0.881   0.881   0.881   0.881   0.881   0.881   0.881   0.881   0.881   0.881   0.881   0.881   0.881   0.881   0.881   0.881   0.881   0.881   0.881   0.881   0.881   0.881   0.881   0.881   0.881   0.881   0.881   0.881   0.881   0.881   0.881   0.881
   130.00    0.881   0.881   0.881   0.881   0.881   0.881   0.881   0.881   0.881   0.881   0.881   0.881   0.881   0.881   0.881   0.881   0.881   0.881   0.881   0.881   0.881   0.881   0.881   0.881   0.881   0.881   0.881   0.881   0.881   0.881   0.881   0.881   0.881
   125.00    0.881   0.881   0.881   0.881   0.881   0.881   0.881   0.881   0.881   0.881   0.881   0.881   0.881   0.881   0.881   0.881   0.881   0.881   0.881   0.881   0.881   0.881   0.881   0.881   0.881   0.881   0.881   0.881   0.881   0.881   0.881   0.881   0.881
   120.00    0.881   0.881   0.881   0.881   0.881   0.881   0.881   0.881   0.881   0.881   0.881   0.881   0.881   0.881   0.881   0.881   0.881   0.881   0.881   0.881   0.881   0.881   0.881   0.881   0.881   0.881   0.881   0.881   0.881   0.881   0.881   0.881   0.881
   115.00    0.881   0.881   0.881   0.881   0.881   0.881   0.881   0.881   0.881   0.881   0.881   0.881   0.881   0.881   0.881   0.881   0.881   0.881   0.881   0.881   0.881   0.881   0.881   0.881   0.881   0.881   0.881   0.881   0.881   0.881   0.881   0.881   0.881
   110.00    0.881   0.881   0.881   0.881   0.881   0.881   0.881   0.881   0.881   0.881   0.881   0.881   0.881   0.881   0.881   0.881   0.881   0.881   0.881   0.881   0.881   0.881   0.881   0.881   0.881   0.881   0.881   0.881   0.881   0.881   0.881   0.881   0.881
   105.00    0.881   0.881   0.881   0.881   0.881   0.881   0.881   0.881   0.881   0.881   0.881   0.881   0.881   0.881   0.881   0.881   0.881   0.881   0.881   0.881   0.881   0.881   0.881   0.881   0.881   0.881   0.881   0.881   0.881   0.881   0.881   0.881   0.881
   100.00    0.881   0.881   0.881   0.881   0.881   0.881   0.881   0.881   0.881   0.881   0.881   0.881   0.881   0.881   0.881   0.881   0.881   0.881   0.881   0.881   0.881   0.881   0.881   0.881   0.881   0.881   0.881   0.881   0.881   0.881   0.881   0.881   0.881
    95.00    0.881   0.881   0.881   0.881   0.881   0.881   0.881   0.881   0.881   0.881   0.881   0.881   0.881   0.881   0.881   0.881   0.881   0.881   0.881   0.881   0.881   0.881   0.881   0.881   0.881   0.881   0.881   0.881   0.881   0.881   0.881   0.881   0.881
    90.00    0.881   0.881   0.881   0.881   0.881   0.881   0.881   0.881   0.881   0.881   0.881   0.881   0.881   0.881   0.881   0.881   0.881   0.881   0.881   0.881   0.881   0.881   0.881   0.881   0.881   0.881   0.881   0.881   0.881   0.881   0.881   0.881   0.881
    85.00    0.881   0.881   0.881   0.881   0.881   0.881   0.881   0.881   0.881   0.881   0.881   0.881   0.881   0.881   0.881   0.881   0.881   0.881   0.881   0.881   0.881   0.881   0.881   0.881   0.881   0.881   0.881   0.881   0.881   0.881   0.881   0.881   0.881
    80.00    0.881   0.881   0.881   0.881   0.881   0.881   0.881   0.881   0.881   0.881   0.881   0.881   0.881   0.881   0.881   0.881   0.881   0.881   0.881   0.881   0.881   0.881   0.881   0.881   0.881   0.881   0.881   0.881   0.881   0.881   0.881   0.881   0.881
    75.00    0.881   0.881   0.881   0.881   0.881   0.881   0.881   0.881   0.881   0.881   0.881   0.881   0.881   0.881   0.881   0.881   0.881   0.881   0.881   0.881   0.881   0.881   0.881   0.881   0.881   0.881   0.881   0.881   0.881   0.881   0.881   0.881   0.881
    70.00    0.881   0.881   0.881   0.881   0.881   0.881   0.881   0.881   0.881   0.881   0.881   0.881   0.881   0.881   0.881   0.881   0.881   0.881   0.881   0.881   0.881   0.881   0.881   0.881   0.881   0.881   0.881   0.881   0.881   0.881   0.881   0.881   0.881
    65.00    0.881   0.881   0.881   0.881   0.881   0.881   0.881   0.881   0.881   0.881   0.881   0.881   0.881   0.881   0.881   0.881   0.881   0.881   0.881   0.881   0.881   0.881   0.881   0.881   0.881   0.881   0.881   0.881   0.881   0.881   0.881   0.881   0.881
    60.00    0.881   0.881   0.881   0.881   0.881   0.881   0.881   0.881   0.881   0.881   0.881   0.881   0.881   0.881   0.881   0.881   0.881   0.881   0.881   0.881   0.881   0.881   0.881   0.881   0.881   0.881   0.881   0.881   0.881   0.881   0.881   0.881   0.881
    55.00    0.881   0.881   0.881   0.881   0.881   0.881   0.881   0.881   0.881   0.881   0.881   0.881   0.881   0.881   0.881   0.881   0.881   0.881   0.881   0.881   0.881   0.881   0.881   0.881   0.881   0.881   0.881   0.881   0.881   0.881   0.881   0.881   0.881
    50.00    0.881   0.881   0.881   0.881   0.881   0.881   0.881   0.881   0.881   0.881   0.881   0.881   0.881   0.881   0.881   0.881   0.881   0.881   0.881   0.881   0.881   0.881   0.881   0.881   0.881   0.881   0.881   0.881   0.881   0.881   0.881   0.881   0.881
    45.00    0.881   0.881   0.881   0.881   0.881   0.881   0.881   0.881   0.881   0.881   0.881   0.881   0.881   0.881   0.881   0.881   0.881   0.881   0.881   0.881   0.881   0.881   0.881   0.881   0.881   0.881   0.881   0.881   0.881   0.881   0.881   0.881   0.881
    40.00    0.881   0.881   0.881   0.881   0.881   0.881   0.881   0.881   0.881   0.881   0.881   0.881   0.881   0.881   0.881   0.881   0.881   0.881   0.881   0.881   0.881   0.881   0.881   0.881   0.881   0.881   0.881   0.881   0.881   0.881   0.881   0.881   0.881
    35.00    0.881   0.881   0.881   0.881   0.881   0.881   0.881   0.881   0.881   0.881   0.881   0.881   0.881   0.881   0.881   0.881   0.881   0.881   0.881   0.881   0.881   0.881   0.881   0.881   0.881   0.881   0.881   0.881   0.881   0.881   0.881   0.881   0.881
    30.00    0.881   0.881   0.881   0.881   0.881   0.881   0.881   0.881   0.881   0.881   0.881   0.881   0.881   0.881   0.881   0.881   0.881   0.881   0.881   0.881   0.881   0.881   0.881   0.881   0.881   0.881   0.881   0.881   0.881   0.881   0.881   0.881   0.881
    25.00    0.881   0.881   0.881   0.881   0.881   0.881   0.881   0.881   0.881   0.881   0.881   0.881   0.881   0.881   0.881   0.881   0.881   0.881   0.881   0.881   0.881   0.881   0.881   0.881   0.881   0.881   0.881   0.881   0.881   0.881   0.881   0.881   0.881
    20.00    0.881   0.881   0.881   0.881   0.881   0.881   0.881   0.881   0.881   0.881   0.881   0.881   0.881   0.881   0.881   0.881   0.881   0.881   0.881   0.881   0.881   0.881   0.881   0.881   0.881   0.881   0.881   0.881   0.881   0.881   0.881   0.881   0.881
    15.00    0.881   0.881   0.881   0.881   0.881   0.881   0.881   0.881   0.881   0.881   0.881   0.881   0.881   0.881   0.881   0.881   0.881   0.881   0.881   0.881   0.881   0.881   0.881   0.881   0.881   0.881   0.881   0.881   0.881   0.881   0.881   0.881   0.881
    10.00    0.881   0.881   0.881   0.881   0.881   0.881   0.881   0.881   0.881   0.881   0.881   0.881   0.881   0.881   0.881   0.881   0.881   0.881   0.881   0.881   0.881   0.881   0.881   0.881   0.881   0.881   0.881   0.881   0.881   0.881   0.881   0.881   0.881

   Height   Standard deviation at grid points for the w component:
   170.00    0.550   0.550   0.550   0.550   0.550   0.550   0.550   0.550   0.550   0.550   0.550   0.550   0.550   0.550   0.550   0.550   0.550   0.550   0.550   0.550   0.550   0.550   0.550   0.550   0.550   0.550   0.550   0.550   0.550   0.550   0.550   0.550   0.550
   165.00    0.550   0.550   0.550   0.550   0.550   0.550   0.550   0.550   0.550   0.550   0.550   0.550   0.550   0.550   0.550   0.550   0.550   0.550   0.550   0.550   0.550   0.550   0.550   0.550   0.550   0.550   0.550   0.550   0.550   0.550   0.550   0.550   0.550
   160.00    0.550   0.550   0.550   0.550   0.550   0.550   0.550   0.550   0.550   0.550   0.550   0.550   0.550   0.550   0.550   0.550   0.550   0.550   0.550   0.550   0.550   0.550   0.550   0.550   0.550   0.550   0.550   0.550   0.550   0.550   0.550   0.550   0.550
   155.00    0.550   0.550   0.550   0.550   0.550   0.550   0.550   0.550   0.550   0.550   0.550   0.550   0.550   0.550   0.550   0.550   0.550   0.550   0.550   0.550   0.550   0.550   0.550   0.550   0.550   0.550   0.550   0.550   0.550   0.550   0.550   0.550   0.550
   150.00    0.550   0.550   0.550   0.550   0.550   0.550   0.550   0.550   0.550   0.550   0.550   0.550   0.550   0.550   0.550   0.550   0.550   0.550   0.550   0.550   0.550   0.550   0.550   0.550   0.550   0.550   0.550   0.550   0.550   0.550   0.550   0.550   0.550
   145.00    0.550   0.550   0.550   0.550   0.550   0.550   0.550   0.550   0.550   0.550   0.550   0.550   0.550   0.550   0.550   0.550   0.550   0.550   0.550   0.550   0.550   0.550   0.550   0.550   0.550   0.550   0.550   0.550   0.550   0.550   0.550   0.550   0.550
   140.00    0.550   0.550   0.550   0.550   0.550   0.550   0.550   0.550   0.550   0.550   0.550   0.550   0.550   0.550   0.550   0.550   0.550   0.550   0.550   0.550   0.550   0.550   0.550   0.550   0.550   0.550   0.550   0.550   0.550   0.550   0.550   0.550   0.550
   135.00    0.550   0.550   0.550   0.550   0.550   0.550   0.550   0.550   0.550   0.550   0.550   0.550   0.550   0.550   0.550   0.550   0.550   0.550   0.550   0.550   0.550   0.550   0.550   0.550   0.550   0.550   0.550   0.550   0.550   0.550   0.550   0.550   0.550
   130.00    0.550   0.550   0.550   0.550   0.550   0.550   0.550   0.550   0.550   0.550   0.550   0.550   0.550   0.550   0.550   0.550   0.550   0.550   0.550   0.550   0.550   0.550   0.550   0.550   0.550   0.550   0.550   0.550   0.550   0.550   0.550   0.550   0.550
   125.00    0.550   0.550   0.550   0.550   0.550   0.550   0.550   0.550   0.550   0.550   0.550   0.550   0.550   0.550   0.550   0.550   0.550   0.550   0.550   0.550   0.550   0.550   0.550   0.550   0.550   0.550   0.550   0.550   0.550   0.550   0.550   0.550   0.550
   120.00    0.550   0.550   0.550   0.550   0.550   0.550   0.550   0.550   0.550   0.550   0.550   0.550   0.550   0.550   0.550   0.550   0.550   0.550   0.550   0.550   0.550   0.550   0.550   0.550   0.550   0.550   0.550   0.550   0.550   0.550   0.550   0.550   0.550
   115.00    0.550   0.550   0.550   0.550   0.550   0.550   0.550   0.550   0.550   0.550   0.550   0.550   0.550   0.550   0.550   0.550   0.550   0.550   0.550   0.550   0.550   0.550   0.550   0.550   0.550   0.550   0.550   0.550   0.550   0.550   0.550   0.550   0.550
   110.00    0.550   0.550   0.550   0.550   0.550   0.550   0.550   0.550   0.550   0.550   0.550   0.550   0.550   0.550   0.550   0.550   0.550   0.550   0.550   0.550   0.550   0.550   0.550   0.550   0.550   0.550   0.550   0.550   0.550   0.550   0.550   0.550   0.550
   105.00    0.550   0.550   0.550   0.550   0.550   0.550   0.550   0.550   0.550   0.550   0.550   0.550   0.550   0.550   0.550   0.550   0.550   0.550   0.550   0.550   0.550   0.550   0.550   0.550   0.550   0.550   0.550   0.550   0.550   0.550   0.550   0.550   0.550
   100.00    0.550   0.550   0.550   0.550   0.550   0.550   0.550   0.550   0.550   0.550   0.550   0.550   0.550   0.550   0.550   0.550   0.550   0.550   0.550   0.550   0.550   0.550   0.550   0.550   0.550   0.550   0.550   0.550   0.550   0.550   0.550   0.550   0.550
    95.00    0.550   0.550   0.550   0.550   0.550   0.550   0.550   0.550   0.550   0.550   0.550   0.550   0.550   0.550   0.550   0.550   0.550   0.550   0.550   0.550   0.550   0.550   0.550   0.550   0.550   0.550   0.550   0.550   0.550   0.550   0.550   0.550   0.550
    90.00    0.550   0.550   0.550   0.550   0.550   0.550   0.550   0.550   0.550   0.550   0.550   0.550   0.550   0.550   0.550   0.550   0.550   0.550   0.550   0.550   0.550   0.550   0.550   0.550   0.550   0.550   0.550   0.550   0.550   0.550   0.550   0.550   0.550
    85.00    0.550   0.550   0.550   0.550   0.550   0.550   0.550   0.550   0.550   0.550   0.550   0.550   0.550   0.550   0.550   0.550   0.550   0.550   0.550   0.550   0.550   0.550   0.550   0.550   0.550   0.550   0.550   0.550   0.550   0.550   0.550   0.550   0.550
    80.00    0.550   0.550   0.550   0.550   0.550   0.550   0.550   0.550   0.550   0.550   0.550   0.550   0.550   0.550   0.550   0.550   0.550   0.550   0.550   0.550   0.550   0.550   0.550   0.550   0.550   0.550   0.550   0.550   0.550   0.550   0.550   0.550   0.550
    75.00    0.550   0.550   0.550   0.550   0.550   0.550   0.550   0.550   0.550   0.550   0.550   0.550   0.550   0.550   0.550   0.550   0.550   0.550   0.550   0.550   0.550   0.550   0.550   0.550   0.550   0.550   0.550   0.550   0.550   0.550   0.550   0.550   0.550
    70.00    0.550   0.550   0.550   0.550   0.550   0.550   0.550   0.550   0.550   0.550   0.550   0.550   0.550   0.550   0.550   0.550   0.550   0.550   0.550   0.550   0.550   0.550   0.550   0.550   0.550   0.550   0.550   0.550   0.550   0.550   0.550   0.550   0.550
    65.00    0.550   0.550   0.550   0.550   0.550   0.550   0.550   0.550   0.550   0.550   0.550   0.550   0.550   0.550   0.550   0.550   0.550   0.550   0.550   0.550   0.550   0.550   0.550   0.550   0.550   0.550   0.550   0.550   0.550   0.550   0.550   0.550   0.550
    60.00    0.550   0.550   0.550   0.550   0.550   0.550   0.550   0.550   0.550   0.550   0.550   0.550   0.550   0.550   0.550   0.550   0.550   0.550   0.550   0.550   0.550   0.550   0.550   0.550   0.550   0.550   0.550   0.550   0.550   0.550   0.550   0.550   0.550
    55.00    0.550   0.550   0.550   0.550   0.550   0.550   0.550   0.550   0.550   0.550   0.550   0.550   0.550   0.550   0.550   0.550   0.550   0.550   0.550   0.550   0.550   0.550   0.550   0.550   0.550   0.550   0.550   0.550   0.550   0.550   0.550   0.550   0.550
    50.00    0.550   0.550   0.550   0.550   0.550   0.550   0.550   0.550   0.550   0.550   0.550   0.550   0.550   0.550   0.550   0.550   0.550   0.550   0.550   0.550   0.550   0.550   0.550   0.550   0.550   0.550   0.550   0.550   0.550   0.550   0.550   0.550   0.550
    45.00    0.550   0.550   0.550   0.550   0.550   0.550   0.550   0.550   0.550   0.550   0.550   0.550   0.550   0.550   0.550   0.550   0.550   0.550   0.550   0.550   0.550   0.550   0.550   0.550   0.550   0.550   0.550   0.550   0.550   0.550   0.550   0.550   0.550
    40.00    0.550   0.550   0.550   0.550   0.550   0.550   0.550   0.550   0.550   0.550   0.550   0.550   0.550   0.550   0.550   0.550   0.550   0.550   0.550   0.550   0.550   0.550   0.550   0.550   0.550   0.550   0.550   0.550   0.550   0.550   0.550   0.550   0.550
    35.00    0.550   0.550   0.550   0.550   0.550   0.550   0.550   0.550   0.550   0.550   0.550   0.550   0.550   0.550   0.550   0.550   0.550   0.550   0.550   0.550   0.550   0.550   0.550   0.550   0.550   0.550   0.550   0.550   0.550   0.550   0.550   0.550   0.550
    30.00    0.550   0.550   0.550   0.550   0.550   0.550   0.550   0.550   0.550   0.550   0.550   0.550   0.550   0.550   0.550   0.550   0.550   0.550   0.550   0.550   0.550   0.550   0.550   0.550   0.550   0.550   0.550   0.550   0.550   0.550   0.550   0.550   0.550
    25.00    0.550   0.550   0.550   0.550   0.550   0.550   0.550   0.550   0.550   0.550   0.550   0.550   0.550   0.550   0.550   0.550   0.550   0.550   0.550   0.550   0.550   0.550   0.550   0.550   0.550   0.550   0.550   0.550   0.550   0.550   0.550   0.550   0.550
    20.00    0.550   0.550   0.550   0.550   0.550   0.550   0.550   0.550   0.550   0.550   0.550   0.550   0.550   0.550   0.550   0.550   0.550   0.550   0.550   0.550   0.550   0.550   0.550   0.550   0.550   0.550   0.550   0.550   0.550   0.550   0.550   0.550   0.550
    15.00    0.550   0.550   0.550   0.550   0.550   0.550   0.550   0.550   0.550   0.550   0.550   0.550   0.550   0.550   0.550   0.550   0.550   0.550   0.550   0.550   0.550   0.550   0.550   0.550   0.550   0.550   0.550   0.550   0.550   0.550   0.550   0.550   0.550
    10.00    0.550   0.550   0.550   0.550   0.550   0.550   0.550   0.550   0.550   0.550   0.550   0.550   0.550   0.550   0.550   0.550   0.550   0.550   0.550   0.550   0.550   0.550   0.550   0.550   0.550   0.550   0.550   0.550   0.550   0.550   0.550   0.550   0.550

   Mean standard deviation across all grid points:
      u component:    1.262 m/s
      v component:    0.881 m/s
      w component:    0.550 m/s


U-component (X) statistics from the interpolated hub point:

   Mean =   8.0000 m/s
   TI   =  15.4440 %


Processing complete.  176.62 CPU seconds used.
