
This summary file was generated by TurbSim on 01-Jun-2022 at 17:08:45.


Runtime Options:

     13428  Random seed #1
    RANLUX  Type of random number generator
         F  Output binary HH turbulence parameters?
         F  Output formatted turbulence parameters?
         F  Output AeroDyn HH files?
         T  Output AeroDyn FF files?
         F  Output BLADED FF files?
         T  Output tower data?
         F  Output formatted FF files?
         F  Output coherent turbulence time step file?
         T  Clockwise rotation when looking downwind?
 0 -  NONE  IEC turbulence models scaled to exact specified standard deviation


Turbine/Model Specifications:

        33  Vertical grid-point matrix dimension
        33  Horizontal grid-point matrix dimension
     0.050  Time step [seconds]
  4500.000  Analysis time [seconds]
  4000.000  Usable output time [seconds]
    90.000  Hub height [m]
   160.000  Grid height [m]
   160.000  Grid width [m]
     0.000  Vertical flow angle [degrees]
     0.000  Horizontal flow angle [degrees]


Meteorological Boundary Conditions:

    IECKAI  IEC Kaimal spectral model
         1  IEC standard: IEC 61400-1 Ed. 3: 2005
    16.700  Percent turbulence intensity, IEC 61400-1 Ed. 3: 2005
       NTM  IEC Normal Turbulence Model
       N/A  IEC Extreme Turbulence Model (ETM) "c" parameter [m/s]
       PL   Wind profile type
    90.000  Reference height [m]
    18.000  Reference wind speed [m/s]
       N/A  Jet height [m]
     0.200  Power law exponent
     0.030  Surface roughness length [m]


Non-IEC Meteorological Boundary Conditions:

       N/A  Site latitude [degrees]
       N/A  Gradient Richardson number
       N/A  Friction or shear velocity [m/s]
       N/A  Mixing layer depth [m]
       N/A  Mean hub u'w' Reynolds stress
       N/A  Mean hub u'v' Reynolds stress
       N/A  Mean hub v'w' Reynolds stress


Spatial Coherence Models:

       IEC  u-component coherence model
      NONE  v-component coherence model
      NONE  w-component coherence model
(   12.000, 0.353E-03)  u-component coherence parameters
                   N/A  v-component coherence parameters
                   N/A  w-component coherence parameters
       N/A  Coherence exponent


You have requested that the following file(s) be generated:

   90m_18mps_twr_I=0.167.bts (AeroDyn/TurbSim full-field wind file)


Turbulence Simulation Scaling Parameter Summary:

   Turbulence model used                            =  IEC Kaimal
   Turbulence characteristic                        =  User-specified
   IEC standard                                     =  IEC 61400-1 Ed. 3: 2005
   Mean wind speed at hub height                    =   18.000 m/s
   Characteristic value of standard deviation       =    3.006 m/s
   Turbulence scale                                 =   42.000 m
   u-component integral scale                       =  340.200 m
   Coherency scale                                  =  340.200 m
   Characteristic value of hub turbulence intensity =   16.700%
   Gradient Richardson number                       =    0.000

   Wind profile type                                =  Power law
   Power law exponent                               =    0.200
   Mean shear across rotor disk                     =    0.055 (m/s)/m
   Assumed rotor diameter                           =  160.000 m
   Surface roughness length                         =    0.030 m

   Nyquist frequency of turbulent wind field        =   10.000 Hz

   Number of time steps in the FFT                  =    90000
   Number of time steps output                      =    80178
   Number of points simulated                       =     1090


Mean Flow Angles:

   Vertical   =   0.0 degrees
   Horizontal =   0.0 degrees

Mean Wind Speed Profile:

   Height    Wind Speed   Horizontal Angle  Vertical Angle  U-comp (X)   V-comp (Y)   W-comp (Z)
     (m)        (m/s)         (degrees)       (degrees)       (m/s)        (m/s)        (m/s)   
   ------    ----------   ----------------  --------------  ----------   ----------   ----------
    170.0       20.44            0.00            0.00         20.44         0.00         0.00
    165.0       20.32            0.00            0.00         20.32         0.00         0.00
    160.0       20.20            0.00            0.00         20.20         0.00         0.00
    155.0       20.07            0.00            0.00         20.07         0.00         0.00
    150.0       19.94            0.00            0.00         19.94         0.00         0.00
    145.0       19.80            0.00            0.00         19.80         0.00         0.00
    140.0       19.66            0.00            0.00         19.66         0.00         0.00
    135.0       19.52            0.00            0.00         19.52         0.00         0.00
    130.0       19.37            0.00            0.00         19.37         0.00         0.00
    125.0       19.22            0.00            0.00         19.22         0.00         0.00
    120.0       19.07            0.00            0.00         19.07         0.00         0.00
    115.0       18.90            0.00            0.00         18.90         0.00         0.00
    110.0       18.74            0.00            0.00         18.74         0.00         0.00
    105.0       18.56            0.00            0.00         18.56         0.00         0.00
    100.0       18.38            0.00            0.00         18.38         0.00         0.00
     95.0       18.20            0.00            0.00         18.20         0.00         0.00
     90.0       18.00            0.00            0.00         18.00         0.00         0.00
     85.0       17.80            0.00            0.00         17.80         0.00         0.00
     80.0       17.58            0.00            0.00         17.58         0.00         0.00
     75.0       17.36            0.00            0.00         17.36         0.00         0.00
     70.0       17.12            0.00            0.00         17.12         0.00         0.00
     65.0       16.87            0.00            0.00         16.87         0.00         0.00
     60.0       16.60            0.00            0.00         16.60         0.00         0.00
     55.0       16.31            0.00            0.00         16.31         0.00         0.00
     50.0       16.00            0.00            0.00         16.00         0.00         0.00
     45.0       15.67            0.00            0.00         15.67         0.00         0.00
     40.0       15.31            0.00            0.00         15.31         0.00         0.00
     35.0       14.90            0.00            0.00         14.90         0.00         0.00
     30.0       14.45            0.00            0.00         14.45         0.00         0.00
     25.0       13.93            0.00            0.00         13.93         0.00         0.00
     20.0       13.32            0.00            0.00         13.32         0.00         0.00
     15.0       12.58            0.00            0.00         12.58         0.00         0.00
     10.0       11.60            0.00            0.00         11.60         0.00         0.00
      5.0       10.10            0.00            0.00         10.10         0.00         0.00


Harvested Random Seeds after Generation of the Random Numbers:

    367268750 K 1
            1 K 2


Hub-Height Simulated Turbulence Statistical Summary:

   Type of Wind        Min (m/s)   Mean (m/s)    Max (m/s)  Sigma (m/s)       TI (%)
   ----------------    ---------   ----------    ---------  -----------       ------
   Longitudinal (u)         6.84        18.00        28.23        2.906       16.142
   Lateral (v)             -9.11         0.00         9.02        2.378       13.213
   Vertical (w)            -6.00        -0.00         5.70        1.466        8.142
   U component              6.84        18.00        28.23        2.906       16.142
   V component             -9.11         0.00         9.02        2.378       13.213
   W component             -6.00        -0.00         5.70        1.466        8.142
   Horizontal (U&V)         6.98        18.16        28.42        2.891       15.922
   Total                    7.13        18.22        28.47        2.882       15.820

                       Min Reynolds     Mean Reynolds    Max Reynolds    Correlation
   Product             Stress (m/s)^2   Stress (m/s)^2   Stress (m/s)^2  Coefficient
   ----------------    --------------   --------------   --------------  -----------
   u'w'                    -39.708            -0.185            29.200        -0.043
   u'v'                    -55.583             0.746            56.297         0.108
   v'w'                    -30.953             0.067            29.787         0.019


   Friction Velocity (Ustar)  =      0.430 m/s
   Maximum Instantaneous TKE  =     65.532 (m/s)^2
   Maximum Instantaneous CTKE =     28.791 (m/s)^2


Grid Point Variance Summary:

   Y-coord  -80.00  -75.00  -70.00  -65.00  -60.00  -55.00  -50.00  -45.00  -40.00  -35.00  -30.00  -25.00  -20.00  -15.00  -10.00   -5.00    0.00    5.00   10.00   15.00   20.00   25.00   30.00   35.00   40.00   45.00   50.00   55.00   60.00   65.00   70.00   75.00   80.00

   Height   Standard deviation at grid points for the u component:
   170.00    3.083   3.068   3.069   3.029   3.017   3.006   3.005   3.041   3.026   3.014   3.060   3.051   3.058   2.990   2.970   2.953   2.949   2.901   2.939   2.888   2.907   2.930   2.946   2.950   2.938   2.948   2.934   2.908   2.881   2.956   2.957   2.848   2.820
   165.00    3.073   3.069   3.084   3.101   3.051   3.035   3.092   3.091   3.050   3.015   3.025   3.042   3.021   3.026   3.000   2.984   3.009   2.993   2.945   2.916   2.924   2.940   2.956   2.975   2.951   2.856   2.854   2.856   2.894   2.960   2.930   2.873   2.822
   160.00    3.084   3.075   3.092   3.120   3.161   3.146   3.151   3.145   3.088   3.063   3.017   3.027   3.040   3.030   3.013   3.007   2.989   3.034   3.022   2.947   2.904   2.890   2.897   2.958   2.961   2.901   2.866   2.900   2.920   2.928   2.841   2.803   2.908
   155.00    3.169   3.112   3.090   3.136   3.165   3.148   3.149   3.128   3.109   3.067   3.029   3.034   3.002   3.014   3.050   3.035   3.033   3.078   3.051   2.992   2.925   2.927   2.926   2.945   2.906   2.900   2.922   2.943   2.912   2.854   2.833   2.894   2.916
   150.00    3.159   3.115   3.135   3.164   3.155   3.066   3.069   3.083   3.130   3.086   3.005   3.026   2.987   3.056   3.072   3.180   3.118   3.104   3.092   2.995   2.899   2.977   2.973   2.933   2.916   2.909   2.877   2.908   2.864   2.816   2.845   2.832   2.852
   145.00    3.197   3.188   3.149   3.118   3.104   3.062   3.049   3.106   3.084   3.038   3.056   3.083   3.081   3.067   3.068   3.127   3.140   3.111   3.041   2.985   2.951   2.944   2.954   2.961   2.979   2.906   2.887   2.862   2.854   2.846   2.802   2.823   2.873
   140.00    3.209   3.214   3.186   3.124   3.063   3.028   3.057   3.082   3.114   3.091   3.081   3.064   3.011   3.065   3.061   3.141   3.078   3.067   3.041   2.950   2.934   2.944   2.982   2.967   2.949   2.927   2.831   2.842   2.767   2.859   2.826   2.842   2.898
   135.00    3.188   3.193   3.203   3.134   2.997   2.997   3.036   3.103   3.046   3.075   3.030   3.011   2.973   3.072   3.073   3.089   3.117   3.031   3.002   2.970   2.914   2.921   2.934   2.926   2.896   2.877   2.853   2.766   2.789   2.836   2.858   2.876   2.869
   130.00    3.166   3.183   3.144   3.077   2.990   3.020   3.035   3.028   3.008   3.049   3.026   3.021   2.990   3.073   3.067   3.082   3.090   3.018   3.006   2.967   2.947   2.952   2.880   2.845   2.838   2.876   2.861   2.805   2.824   2.866   2.865   2.898   2.844
   125.00    3.222   3.211   3.152   3.069   3.031   2.985   3.020   3.056   3.033   3.031   2.942   2.943   2.974   3.042   3.025   3.077   3.068   3.008   2.975   2.904   2.920   2.962   2.926   2.850   2.817   2.830   2.820   2.876   2.887   2.869   2.885   2.891   2.847
   120.00    3.156   3.143   3.121   3.076   3.011   3.020   2.967   3.027   3.003   2.992   2.951   2.888   2.949   2.985   2.998   2.981   2.955   2.953   2.945   2.976   2.971   2.999   2.992   2.908   2.844   2.838   2.859   2.897   2.894   2.863   2.906   2.875   2.868
   115.00    3.136   3.127   3.113   3.066   2.991   2.993   2.959   2.978   2.941   2.934   2.958   2.924   2.920   2.919   2.927   2.927   2.925   2.913   2.977   2.997   3.008   3.064   3.057   2.923   2.885   2.887   2.862   2.873   2.924   2.940   2.903   2.850   2.878
   110.00    3.088   3.064   3.117   3.102   3.031   3.002   3.021   2.931   2.948   2.982   2.895   2.916   2.908   2.867   2.859   2.878   2.946   2.935   2.980   3.059   3.062   3.078   2.993   2.902   2.913   2.930   2.921   2.968   2.936   2.904   2.930   2.918   2.884
   105.00    3.063   3.068   3.075   3.081   3.052   2.962   2.911   2.937   2.938   2.893   2.881   2.912   2.889   2.874   2.858   2.879   2.908   2.959   3.079   3.069   3.060   3.043   2.991   2.945   2.962   2.931   2.937   2.942   2.917   2.940   2.953   2.986   2.928
   100.00    2.998   3.047   3.051   3.028   3.038   2.962   2.957   2.977   2.949   2.947   2.958   2.934   2.917   2.934   2.884   2.896   2.908   2.905   3.026   3.032   3.037   3.020   2.987   2.974   2.966   2.950   2.973   2.934   2.925   2.901   2.955   2.980   2.946
    95.00    3.056   3.024   3.050   3.056   3.042   3.003   2.957   2.982   2.988   2.951   2.956   3.013   2.931   2.926   2.949   2.895   2.907   2.915   2.957   3.007   2.962   3.013   2.971   2.920   2.983   2.994   2.988   2.964   2.931   2.954   2.995   2.955   2.937
    90.00    2.997   3.046   3.031   3.063   3.036   2.965   2.949   2.954   2.953   2.957   2.945   2.973   2.971   2.998   3.013   2.963   2.906   2.904   2.966   2.997   3.008   2.992   2.990   2.930   2.987   2.984   2.981   2.971   2.952   2.985   3.044   2.990   2.976
    85.00    3.010   3.040   3.041   3.066   3.057   2.998   3.003   2.948   2.943   2.927   2.923   2.955   2.981   3.068   3.048   2.994   2.877   2.930   3.008   2.987   2.975   2.950   2.981   3.004   2.959   2.976   2.962   2.928   2.953   2.970   3.040   3.010   2.957
    80.00    3.021   3.015   3.023   3.099   3.081   3.004   2.946   2.918   2.905   2.936   2.947   2.967   2.985   2.990   3.015   3.005   2.893   2.907   2.978   2.997   2.951   2.932   2.958   2.938   2.934   2.911   2.893   2.934   2.983   3.009   2.982   2.996   2.997
    75.00    2.987   3.020   3.042   3.056   3.057   3.000   3.020   2.984   2.922   2.917   2.912   2.941   2.932   2.995   2.952   2.929   2.905   2.948   2.918   2.943   2.928   2.884   2.922   2.935   2.895   2.881   2.864   2.889   2.968   2.980   3.027   3.030   2.988
    70.00    3.040   3.023   2.989   3.004   3.019   2.990   3.015   3.011   2.932   2.899   2.874   2.929   2.949   2.957   2.945   2.946   2.923   2.950   2.934   2.929   2.940   2.894   2.878   2.913   2.875   2.859   2.825   2.947   2.979   3.011   3.022   3.066   3.059
    65.00    3.057   2.967   3.010   2.991   3.005   2.989   2.963   2.971   2.947   2.863   2.849   2.857   2.920   2.955   2.921   2.940   2.925   2.950   2.901   2.917   2.940   2.903   2.847   2.873   2.875   2.858   2.875   2.961   2.958   3.004   3.017   3.014   3.027
    60.00    3.041   3.003   3.039   3.034   2.997   3.016   2.965   2.910   2.883   2.848   2.842   2.850   2.870   2.869   2.887   2.919   2.872   2.894   2.927   2.921   2.922   2.912   2.935   2.947   2.907   2.844   2.916   2.917   2.946   2.995   3.042   3.063   3.027
    55.00    3.045   3.090   3.061   3.061   3.001   3.023   2.971   2.893   2.873   2.890   2.897   2.840   2.865   2.855   2.886   2.891   2.842   2.913   2.964   2.978   2.932   2.950   2.902   2.957   2.949   2.894   2.876   2.879   2.964   2.959   2.981   2.961   2.997
    50.00    3.024   3.022   3.072   3.079   3.081   3.009   2.953   2.921   2.893   2.911   2.846   2.906   2.871   2.839   2.886   2.880   2.892   2.823   2.896   2.947   2.966   2.889   2.929   2.948   2.959   2.981   2.961   2.974   3.005   2.972   2.966   3.001   2.991
    45.00    3.029   3.058   3.078   3.055   3.030   2.982   2.969   2.913   2.909   2.862   2.860   2.865   2.848   2.854   2.871   2.875   2.939   2.944   2.920   2.881   2.925   2.976   2.965   2.980   2.974   3.003   3.009   2.974   2.958   2.939   2.954   2.972   2.992
    40.00    2.987   3.008   3.006   2.983   2.945   2.933   2.902   2.903   2.914   2.895   2.903   2.850   2.813   2.806   2.881   2.918   2.948   2.922   2.930   2.918   2.922   2.944   2.959   3.004   3.012   3.050   3.075   3.017   2.947   2.978   2.971   2.970   3.000
    35.00    2.995   2.969   2.961   2.967   2.924   2.873   2.838   2.887   2.889   2.871   2.821   2.829   2.812   2.829   2.850   2.867   2.957   2.930   2.922   2.937   2.936   2.954   2.988   2.998   3.032   3.049   3.040   3.043   3.000   3.009   2.997   3.006   2.998
    30.00    2.977   3.033   3.007   2.937   2.933   2.826   2.860   2.896   2.867   2.841   2.776   2.788   2.847   2.858   2.823   2.828   2.884   2.877   2.909   2.904   2.904   2.927   2.964   2.963   3.043   3.064   3.029   3.018   3.017   2.982   2.999   2.990   3.006
    25.00    2.969   2.987   2.927   2.905   2.889   2.865   2.853   2.856   2.871   2.795   2.787   2.827   2.864   2.850   2.831   2.868   2.894   2.854   2.858   2.861   2.895   2.941   2.927   3.007   3.073   3.094   3.035   3.009   3.049   2.985   3.027   3.014   3.038
    20.00    2.988   2.891   2.920   2.930   2.859   2.855   2.843   2.905   2.919   2.891   2.849   2.886   2.874   2.864   2.820   2.861   2.907   2.862   2.848   2.861   2.923   2.929   2.953   2.994   3.040   3.074   3.041   3.004   3.006   2.984   3.020   2.998   3.020
    15.00    3.018   2.957   2.981   2.926   2.892   2.890   2.851   2.895   2.954   2.927   2.913   2.929   2.924   2.908   2.880   2.933   2.936   2.910   2.883   2.945   2.958   2.977   2.973   2.968   3.028   3.011   3.066   3.045   3.036   3.036   3.003   2.993   2.984
    10.00    2.980   3.012   2.978   2.950   2.967   2.949   2.918   2.943   2.935   2.954   2.975   2.916   2.965   2.947   2.952   2.881   2.930   2.932   2.914   2.923   2.955   2.939   2.956   2.993   2.990   3.069   3.117   3.072   3.065   3.073   3.015   3.000   2.917

   Height   Standard deviation at grid points for the v component:
   170.00    2.378   2.378   2.378   2.378   2.378   2.378   2.378   2.378   2.378   2.378   2.378   2.378   2.378   2.378   2.378   2.378   2.378   2.378   2.378   2.378   2.378   2.378   2.378   2.378   2.378   2.378   2.378   2.378   2.378   2.378   2.378   2.378   2.378
   165.00    2.378   2.378   2.378   2.378   2.378   2.378   2.378   2.378   2.378   2.378   2.378   2.378   2.378   2.378   2.378   2.378   2.378   2.378   2.378   2.378   2.378   2.378   2.378   2.378   2.378   2.378   2.378   2.378   2.378   2.378   2.378   2.378   2.378
   160.00    2.378   2.378   2.378   2.378   2.378   2.378   2.378   2.378   2.378   2.378   2.378   2.378   2.378   2.378   2.378   2.378   2.378   2.378   2.378   2.378   2.378   2.378   2.378   2.378   2.378   2.378   2.378   2.378   2.378   2.378   2.378   2.378   2.378
   155.00    2.378   2.378   2.378   2.378   2.378   2.378   2.378   2.378   2.378   2.378   2.378   2.378   2.378   2.378   2.378   2.378   2.378   2.378   2.378   2.378   2.378   2.378   2.378   2.378   2.378   2.378   2.378   2.378   2.378   2.378   2.378   2.378   2.378
   150.00    2.378   2.378   2.378   2.378   2.378   2.378   2.378   2.378   2.378   2.378   2.378   2.378   2.378   2.378   2.378   2.378   2.378   2.378   2.378   2.378   2.378   2.378   2.378   2.378   2.378   2.378   2.378   2.378   2.378   2.378   2.378   2.378   2.378
   145.00    2.378   2.378   2.378   2.378   2.378   2.378   2.378   2.378   2.378   2.378   2.378   2.378   2.378   2.378   2.378   2.378   2.378   2.378   2.378   2.378   2.378   2.378   2.378   2.378   2.378   2.378   2.378   2.378   2.378   2.378   2.378   2.378   2.378
   140.00    2.378   2.378   2.378   2.378   2.378   2.378   2.378   2.378   2.378   2.378   2.378   2.378   2.378   2.378   2.378   2.378   2.378   2.378   2.378   2.378   2.378   2.378   2.378   2.378   2.378   2.378   2.378   2.378   2.378   2.378   2.378   2.378   2.378
   135.00    2.378   2.378   2.378   2.378   2.378   2.378   2.378   2.378   2.378   2.378   2.378   2.378   2.378   2.378   2.378   2.378   2.378   2.378   2.378   2.378   2.378   2.378   2.378   2.378   2.378   2.378   2.378   2.378   2.378   2.378   2.378   2.378   2.378
   130.00    2.378   2.378   2.378   2.378   2.378   2.378   2.378   2.378   2.378   2.378   2.378   2.378   2.378   2.378   2.378   2.378   2.378   2.378   2.378   2.378   2.378   2.378   2.378   2.378   2.378   2.378   2.378   2.378   2.378   2.378   2.378   2.378   2.378
   125.00    2.378   2.378   2.378   2.378   2.378   2.378   2.378   2.378   2.378   2.378   2.378   2.378   2.378   2.378   2.378   2.378   2.378   2.378   2.378   2.378   2.378   2.378   2.378   2.378   2.378   2.378   2.378   2.378   2.378   2.378   2.378   2.378   2.378
   120.00    2.378   2.378   2.378   2.378   2.378   2.378   2.378   2.378   2.378   2.378   2.378   2.378   2.378   2.378   2.378   2.378   2.378   2.378   2.378   2.378   2.378   2.378   2.378   2.378   2.378   2.378   2.378   2.378   2.378   2.378   2.378   2.378   2.378
   115.00    2.378   2.378   2.378   2.378   2.378   2.378   2.378   2.378   2.378   2.378   2.378   2.378   2.378   2.378   2.378   2.378   2.378   2.378   2.378   2.378   2.378   2.378   2.378   2.378   2.378   2.378   2.378   2.378   2.378   2.378   2.378   2.378   2.378
   110.00    2.378   2.378   2.378   2.378   2.378   2.378   2.378   2.378   2.378   2.378   2.378   2.378   2.378   2.378   2.378   2.378   2.378   2.378   2.378   2.378   2.378   2.378   2.378   2.378   2.378   2.378   2.378   2.378   2.378   2.378   2.378   2.378   2.378
   105.00    2.378   2.378   2.378   2.378   2.378   2.378   2.378   2.378   2.378   2.378   2.378   2.378   2.378   2.378   2.378   2.378   2.378   2.378   2.378   2.378   2.378   2.378   2.378   2.378   2.378   2.378   2.378   2.378   2.378   2.378   2.378   2.378   2.378
   100.00    2.378   2.378   2.378   2.378   2.378   2.378   2.378   2.378   2.378   2.378   2.378   2.378   2.378   2.378   2.378   2.378   2.378   2.378   2.378   2.378   2.378   2.378   2.378   2.378   2.378   2.378   2.378   2.378   2.378   2.378   2.378   2.378   2.378
    95.00    2.378   2.378   2.378   2.378   2.378   2.378   2.378   2.378   2.378   2.378   2.378   2.378   2.378   2.378   2.378   2.378   2.378   2.378   2.378   2.378   2.378   2.378   2.378   2.378   2.378   2.378   2.378   2.378   2.378   2.378   2.378   2.378   2.378
    90.00    2.378   2.378   2.378   2.378   2.378   2.378   2.378   2.378   2.378   2.378   2.378   2.378   2.378   2.378   2.378   2.378   2.378   2.378   2.378   2.378   2.378   2.378   2.378   2.378   2.378   2.378   2.378   2.378   2.378   2.378   2.378   2.378   2.378
    85.00    2.378   2.378   2.378   2.378   2.378   2.378   2.378   2.378   2.378   2.378   2.378   2.378   2.378   2.378   2.378   2.378   2.378   2.378   2.378   2.378   2.378   2.378   2.378   2.378   2.378   2.378   2.378   2.378   2.378   2.378   2.378   2.378   2.378
    80.00    2.378   2.378   2.378   2.378   2.378   2.378   2.378   2.378   2.378   2.378   2.378   2.378   2.378   2.378   2.378   2.378   2.378   2.378   2.378   2.378   2.378   2.378   2.378   2.378   2.378   2.378   2.378   2.378   2.378   2.378   2.378   2.378   2.378
    75.00    2.378   2.378   2.378   2.378   2.378   2.378   2.378   2.378   2.378   2.378   2.378   2.378   2.378   2.378   2.378   2.378   2.378   2.378   2.378   2.378   2.378   2.378   2.378   2.378   2.378   2.378   2.378   2.378   2.378   2.378   2.378   2.378   2.378
    70.00    2.378   2.378   2.378   2.378   2.378   2.378   2.378   2.378   2.378   2.378   2.378   2.378   2.378   2.378   2.378   2.378   2.378   2.378   2.378   2.378   2.378   2.378   2.378   2.378   2.378   2.378   2.378   2.378   2.378   2.378   2.378   2.378   2.378
    65.00    2.378   2.378   2.378   2.378   2.378   2.378   2.378   2.378   2.378   2.378   2.378   2.378   2.378   2.378   2.378   2.378   2.378   2.378   2.378   2.378   2.378   2.378   2.378   2.378   2.378   2.378   2.378   2.378   2.378   2.378   2.378   2.378   2.378
    60.00    2.378   2.378   2.378   2.378   2.378   2.378   2.378   2.378   2.378   2.378   2.378   2.378   2.378   2.378   2.378   2.378   2.378   2.378   2.378   2.378   2.378   2.378   2.378   2.378   2.378   2.378   2.378   2.378   2.378   2.378   2.378   2.378   2.378
    55.00    2.378   2.378   2.378   2.378   2.378   2.378   2.378   2.378   2.378   2.378   2.378   2.378   2.378   2.378   2.378   2.378   2.378   2.378   2.378   2.378   2.378   2.378   2.378   2.378   2.378   2.378   2.378   2.378   2.378   2.378   2.378   2.378   2.378
    50.00    2.378   2.378   2.378   2.378   2.378   2.378   2.378   2.378   2.378   2.378   2.378   2.378   2.378   2.378   2.378   2.378   2.378   2.378   2.378   2.378   2.378   2.378   2.378   2.378   2.378   2.378   2.378   2.378   2.378   2.378   2.378   2.378   2.378
    45.00    2.378   2.378   2.378   2.378   2.378   2.378   2.378   2.378   2.378   2.378   2.378   2.378   2.378   2.378   2.378   2.378   2.378   2.378   2.378   2.378   2.378   2.378   2.378   2.378   2.378   2.378   2.378   2.378   2.378   2.378   2.378   2.378   2.378
    40.00    2.378   2.378   2.378   2.378   2.378   2.378   2.378   2.378   2.378   2.378   2.378   2.378   2.378   2.378   2.378   2.378   2.378   2.378   2.378   2.378   2.378   2.378   2.378   2.378   2.378   2.378   2.378   2.378   2.378   2.378   2.378   2.378   2.378
    35.00    2.378   2.378   2.378   2.378   2.378   2.378   2.378   2.378   2.378   2.378   2.378   2.378   2.378   2.378   2.378   2.378   2.378   2.378   2.378   2.378   2.378   2.378   2.378   2.378   2.378   2.378   2.378   2.378   2.378   2.378   2.378   2.378   2.378
    30.00    2.378   2.378   2.378   2.378   2.378   2.378   2.378   2.378   2.378   2.378   2.378   2.378   2.378   2.378   2.378   2.378   2.378   2.378   2.378   2.378   2.378   2.378   2.378   2.378   2.378   2.378   2.378   2.378   2.378   2.378   2.378   2.378   2.378
    25.00    2.378   2.378   2.378   2.378   2.378   2.378   2.378   2.378   2.378   2.378   2.378   2.378   2.378   2.378   2.378   2.378   2.378   2.378   2.378   2.378   2.378   2.378   2.378   2.378   2.378   2.378   2.378   2.378   2.378   2.378   2.378   2.378   2.378
    20.00    2.378   2.378   2.378   2.378   2.378   2.378   2.378   2.378   2.378   2.378   2.378   2.378   2.378   2.378   2.378   2.378   2.378   2.378   2.378   2.378   2.378   2.378   2.378   2.378   2.378   2.378   2.378   2.378   2.378   2.378   2.378   2.378   2.378
    15.00    2.378   2.378   2.378   2.378   2.378   2.378   2.378   2.378   2.378   2.378   2.378   2.378   2.378   2.378   2.378   2.378   2.378   2.378   2.378   2.378   2.378   2.378   2.378   2.378   2.378   2.378   2.378   2.378   2.378   2.378   2.378   2.378   2.378
    10.00    2.378   2.378   2.378   2.378   2.378   2.378   2.378   2.378   2.378   2.378   2.378   2.378   2.378   2.378   2.378   2.378   2.378   2.378   2.378   2.378   2.378   2.378   2.378   2.378   2.378   2.378   2.378   2.378   2.378   2.378   2.378   2.378   2.378

   Height   Standard deviation at grid points for the w component:
   170.00    1.466   1.466   1.466   1.466   1.466   1.466   1.466   1.466   1.466   1.466   1.466   1.466   1.466   1.466   1.466   1.466   1.466   1.466   1.466   1.466   1.466   1.466   1.466   1.466   1.466   1.466   1.466   1.466   1.466   1.466   1.466   1.466   1.466
   165.00    1.466   1.466   1.466   1.466   1.466   1.466   1.466   1.466   1.466   1.466   1.466   1.466   1.466   1.466   1.466   1.466   1.466   1.466   1.466   1.466   1.466   1.466   1.466   1.466   1.466   1.466   1.466   1.466   1.466   1.466   1.466   1.466   1.466
   160.00    1.466   1.466   1.466   1.466   1.466   1.466   1.466   1.466   1.466   1.466   1.466   1.466   1.466   1.466   1.466   1.466   1.466   1.466   1.466   1.466   1.466   1.466   1.466   1.466   1.466   1.466   1.466   1.466   1.466   1.466   1.466   1.466   1.466
   155.00    1.466   1.466   1.466   1.466   1.466   1.466   1.466   1.466   1.466   1.466   1.466   1.466   1.466   1.466   1.466   1.466   1.466   1.466   1.466   1.466   1.466   1.466   1.466   1.466   1.466   1.466   1.466   1.466   1.466   1.466   1.466   1.466   1.466
   150.00    1.466   1.466   1.466   1.466   1.466   1.466   1.466   1.466   1.466   1.466   1.466   1.466   1.466   1.466   1.466   1.466   1.466   1.466   1.466   1.466   1.466   1.466   1.466   1.466   1.466   1.466   1.466   1.466   1.466   1.466   1.466   1.466   1.466
   145.00    1.466   1.466   1.466   1.466   1.466   1.466   1.466   1.466   1.466   1.466   1.466   1.466   1.466   1.466   1.466   1.466   1.466   1.466   1.466   1.466   1.466   1.466   1.466   1.466   1.466   1.466   1.466   1.466   1.466   1.466   1.466   1.466   1.466
   140.00    1.466   1.466   1.466   1.466   1.466   1.466   1.466   1.466   1.466   1.466   1.466   1.466   1.466   1.466   1.466   1.466   1.466   1.466   1.466   1.466   1.466   1.466   1.466   1.466   1.466   1.466   1.466   1.466   1.466   1.466   1.466   1.466   1.466
   135.00    1.466   1.466   1.466   1.466   1.466   1.466   1.466   1.466   1.466   1.466   1.466   1.466   1.466   1.466   1.466   1.466   1.466   1.466   1.466   1.466   1.466   1.466   1.466   1.466   1.466   1.466   1.466   1.466   1.466   1.466   1.466   1.466   1.466
   130.00    1.466   1.466   1.466   1.466   1.466   1.466   1.466   1.466   1.466   1.466   1.466   1.466   1.466   1.466   1.466   1.466   1.466   1.466   1.466   1.466   1.466   1.466   1.466   1.466   1.466   1.466   1.466   1.466   1.466   1.466   1.466   1.466   1.466
   125.00    1.466   1.466   1.466   1.466   1.466   1.466   1.466   1.466   1.466   1.466   1.466   1.466   1.466   1.466   1.466   1.466   1.466   1.466   1.466   1.466   1.466   1.466   1.466   1.466   1.466   1.466   1.466   1.466   1.466   1.466   1.466   1.466   1.466
   120.00    1.466   1.466   1.466   1.466   1.466   1.466   1.466   1.466   1.466   1.466   1.466   1.466   1.466   1.466   1.466   1.466   1.466   1.466   1.466   1.466   1.466   1.466   1.466   1.466   1.466   1.466   1.466   1.466   1.466   1.466   1.466   1.466   1.466
   115.00    1.466   1.466   1.466   1.466   1.466   1.466   1.466   1.466   1.466   1.466   1.466   1.466   1.466   1.466   1.466   1.466   1.466   1.466   1.466   1.466   1.466   1.466   1.466   1.466   1.466   1.466   1.466   1.466   1.466   1.466   1.466   1.466   1.466
   110.00    1.466   1.466   1.466   1.466   1.466   1.466   1.466   1.466   1.466   1.466   1.466   1.466   1.466   1.466   1.466   1.466   1.466   1.466   1.466   1.466   1.466   1.466   1.466   1.466   1.466   1.466   1.466   1.466   1.466   1.466   1.466   1.466   1.466
   105.00    1.466   1.466   1.466   1.466   1.466   1.466   1.466   1.466   1.466   1.466   1.466   1.466   1.466   1.466   1.466   1.466   1.466   1.466   1.466   1.466   1.466   1.466   1.466   1.466   1.466   1.466   1.466   1.466   1.466   1.466   1.466   1.466   1.466
   100.00    1.466   1.466   1.466   1.466   1.466   1.466   1.466   1.466   1.466   1.466   1.466   1.466   1.466   1.466   1.466   1.466   1.466   1.466   1.466   1.466   1.466   1.466   1.466   1.466   1.466   1.466   1.466   1.466   1.466   1.466   1.466   1.466   1.466
    95.00    1.466   1.466   1.466   1.466   1.466   1.466   1.466   1.466   1.466   1.466   1.466   1.466   1.466   1.466   1.466   1.466   1.466   1.466   1.466   1.466   1.466   1.466   1.466   1.466   1.466   1.466   1.466   1.466   1.466   1.466   1.466   1.466   1.466
    90.00    1.466   1.466   1.466   1.466   1.466   1.466   1.466   1.466   1.466   1.466   1.466   1.466   1.466   1.466   1.466   1.466   1.466   1.466   1.466   1.466   1.466   1.466   1.466   1.466   1.466   1.466   1.466   1.466   1.466   1.466   1.466   1.466   1.466
    85.00    1.466   1.466   1.466   1.466   1.466   1.466   1.466   1.466   1.466   1.466   1.466   1.466   1.466   1.466   1.466   1.466   1.466   1.466   1.466   1.466   1.466   1.466   1.466   1.466   1.466   1.466   1.466   1.466   1.466   1.466   1.466   1.466   1.466
    80.00    1.466   1.466   1.466   1.466   1.466   1.466   1.466   1.466   1.466   1.466   1.466   1.466   1.466   1.466   1.466   1.466   1.466   1.466   1.466   1.466   1.466   1.466   1.466   1.466   1.466   1.466   1.466   1.466   1.466   1.466   1.466   1.466   1.466
    75.00    1.466   1.466   1.466   1.466   1.466   1.466   1.466   1.466   1.466   1.466   1.466   1.466   1.466   1.466   1.466   1.466   1.466   1.466   1.466   1.466   1.466   1.466   1.466   1.466   1.466   1.466   1.466   1.466   1.466   1.466   1.466   1.466   1.466
    70.00    1.466   1.466   1.466   1.466   1.466   1.466   1.466   1.466   1.466   1.466   1.466   1.466   1.466   1.466   1.466   1.466   1.466   1.466   1.466   1.466   1.466   1.466   1.466   1.466   1.466   1.466   1.466   1.466   1.466   1.466   1.466   1.466   1.466
    65.00    1.466   1.466   1.466   1.466   1.466   1.466   1.466   1.466   1.466   1.466   1.466   1.466   1.466   1.466   1.466   1.466   1.466   1.466   1.466   1.466   1.466   1.466   1.466   1.466   1.466   1.466   1.466   1.466   1.466   1.466   1.466   1.466   1.466
    60.00    1.466   1.466   1.466   1.466   1.466   1.466   1.466   1.466   1.466   1.466   1.466   1.466   1.466   1.466   1.466   1.466   1.466   1.466   1.466   1.466   1.466   1.466   1.466   1.466   1.466   1.466   1.466   1.466   1.466   1.466   1.466   1.466   1.466
    55.00    1.466   1.466   1.466   1.466   1.466   1.466   1.466   1.466   1.466   1.466   1.466   1.466   1.466   1.466   1.466   1.466   1.466   1.466   1.466   1.466   1.466   1.466   1.466   1.466   1.466   1.466   1.466   1.466   1.466   1.466   1.466   1.466   1.466
    50.00    1.466   1.466   1.466   1.466   1.466   1.466   1.466   1.466   1.466   1.466   1.466   1.466   1.466   1.466   1.466   1.466   1.466   1.466   1.466   1.466   1.466   1.466   1.466   1.466   1.466   1.466   1.466   1.466   1.466   1.466   1.466   1.466   1.466
    45.00    1.466   1.466   1.466   1.466   1.466   1.466   1.466   1.466   1.466   1.466   1.466   1.466   1.466   1.466   1.466   1.466   1.466   1.466   1.466   1.466   1.466   1.466   1.466   1.466   1.466   1.466   1.466   1.466   1.466   1.466   1.466   1.466   1.466
    40.00    1.466   1.466   1.466   1.466   1.466   1.466   1.466   1.466   1.466   1.466   1.466   1.466   1.466   1.466   1.466   1.466   1.466   1.466   1.466   1.466   1.466   1.466   1.466   1.466   1.466   1.466   1.466   1.466   1.466   1.466   1.466   1.466   1.466
    35.00    1.466   1.466   1.466   1.466   1.466   1.466   1.466   1.466   1.466   1.466   1.466   1.466   1.466   1.466   1.466   1.466   1.466   1.466   1.466   1.466   1.466   1.466   1.466   1.466   1.466   1.466   1.466   1.466   1.466   1.466   1.466   1.466   1.466
    30.00    1.466   1.466   1.466   1.466   1.466   1.466   1.466   1.466   1.466   1.466   1.466   1.466   1.466   1.466   1.466   1.466   1.466   1.466   1.466   1.466   1.466   1.466   1.466   1.466   1.466   1.466   1.466   1.466   1.466   1.466   1.466   1.466   1.466
    25.00    1.466   1.466   1.466   1.466   1.466   1.466   1.466   1.466   1.466   1.466   1.466   1.466   1.466   1.466   1.466   1.466   1.466   1.466   1.466   1.466   1.466   1.466   1.466   1.466   1.466   1.466   1.466   1.466   1.466   1.466   1.466   1.466   1.466
    20.00    1.466   1.466   1.466   1.466   1.466   1.466   1.466   1.466   1.466   1.466   1.466   1.466   1.466   1.466   1.466   1.466   1.466   1.466   1.466   1.466   1.466   1.466   1.466   1.466   1.466   1.466   1.466   1.466   1.466   1.466   1.466   1.466   1.466
    15.00    1.466   1.466   1.466   1.466   1.466   1.466   1.466   1.466   1.466   1.466   1.466   1.466   1.466   1.466   1.466   1.466   1.466   1.466   1.466   1.466   1.466   1.466   1.466   1.466   1.466   1.466   1.466   1.466   1.466   1.466   1.466   1.466   1.466
    10.00    1.466   1.466   1.466   1.466   1.466   1.466   1.466   1.466   1.466   1.466   1.466   1.466   1.466   1.466   1.466   1.466   1.466   1.466   1.466   1.466   1.466   1.466   1.466   1.466   1.466   1.466   1.466   1.466   1.466   1.466   1.466   1.466   1.466

   Mean standard deviation across all grid points:
      u component:    2.967 m/s
      v component:    2.378 m/s
      w component:    1.466 m/s


U-component (X) statistics from the interpolated hub point:

   Mean =  18.0000 m/s
   TI   =  16.1421 %


Processing complete.  633.8 CPU seconds used.
